
*** ChampSim Multicore Out-of-Order Simulator ***

Warmup Instructions: 1000000
Simulation Instructions: 1000000
Number of CPUs: 16
Off-chip DRAM Size: 4 GiB Channels: 1 Width: 64-bit Data Rate: 3200 MT/s

VirtualMemory physical capacity: 8588881920 num_ppages: 2096895
VirtualMemory page size: 4096 log2_page_size: 12

CPU 0 runs /home/cs422proj/600.perlbench_s-570B.champsimtrace.xz
CPU 1 runs /home/cs422proj/605.mcf_s-472B.champsimtrace.xz
CPU 2 runs /home/cs422proj/620.omnetpp_s-141B.champsimtrace.xz
CPU 3 runs /home/cs422proj/619.lbm_s-2676B.champsimtrace.xz
CPU 4 runs /home/cs422proj/607.cactuBSSN_s-2421B.champsimtrace.xz
CPU 5 runs /home/cs422proj/602.gcc_s-1850B.champsimtrace.xz
CPU 6 runs /home/cs422proj/603.bwaves_s-891B.champsimtrace.xz
CPU 7 runs /home/cs422proj/621.wrf_s-575B.champsimtrace.xz
CPU 8 runs /home/cs422proj/600.perlbench_s-570B.champsimtrace.xz
CPU 9 runs /home/cs422proj/605.mcf_s-472B.champsimtrace.xz
CPU 10 runs /home/cs422proj/620.omnetpp_s-141B.champsimtrace.xz
CPU 11 runs /home/cs422proj/619.lbm_s-2676B.champsimtrace.xz
CPU 12 runs /home/cs422proj/607.cactuBSSN_s-2421B.champsimtrace.xz
CPU 13 runs /home/cs422proj/602.gcc_s-1850B.champsimtrace.xz
CPU 14 runs /home/cs422proj/603.bwaves_s-891B.champsimtrace.xz
CPU 15 runs /home/cs422proj/621.wrf_s-575B.champsimtrace.xz
CPU 0 Bimodal branch predictor
Basic BTB sets: 1024 ways: 8 indirect buffer size: 4096 RAS size: 64
CPU 1 Bimodal branch predictor
Basic BTB sets: 1024 ways: 8 indirect buffer size: 4096 RAS size: 64
CPU 2 Bimodal branch predictor
Basic BTB sets: 1024 ways: 8 indirect buffer size: 4096 RAS size: 64
CPU 3 Bimodal branch predictor
Basic BTB sets: 1024 ways: 8 indirect buffer size: 4096 RAS size: 64
CPU 4 Bimodal branch predictor
Basic BTB sets: 1024 ways: 8 indirect buffer size: 4096 RAS size: 64
CPU 5 Bimodal branch predictor
Basic BTB sets: 1024 ways: 8 indirect buffer size: 4096 RAS size: 64
CPU 6 Bimodal branch predictor
Basic BTB sets: 1024 ways: 8 indirect buffer size: 4096 RAS size: 64
CPU 7 Bimodal branch predictor
Basic BTB sets: 1024 ways: 8 indirect buffer size: 4096 RAS size: 64
CPU 8 Bimodal branch predictor
Basic BTB sets: 1024 ways: 8 indirect buffer size: 4096 RAS size: 64
CPU 9 Bimodal branch predictor
Basic BTB sets: 1024 ways: 8 indirect buffer size: 4096 RAS size: 64
CPU 10 Bimodal branch predictor
Basic BTB sets: 1024 ways: 8 indirect buffer size: 4096 RAS size: 64
CPU 11 Bimodal branch predictor
Basic BTB sets: 1024 ways: 8 indirect buffer size: 4096 RAS size: 64
CPU 12 Bimodal branch predictor
Basic BTB sets: 1024 ways: 8 indirect buffer size: 4096 RAS size: 64
CPU 13 Bimodal branch predictor
Basic BTB sets: 1024 ways: 8 indirect buffer size: 4096 RAS size: 64
CPU 14 Bimodal branch predictor
Basic BTB sets: 1024 ways: 8 indirect buffer size: 4096 RAS size: 64
CPU 15 Bimodal branch predictor
Basic BTB sets: 1024 ways: 8 indirect buffer size: 4096 RAS size: 64

Warmup complete CPU 0 instructions: 1225969 cycles: 369511 (Simulation time: 0 hr 0 min 43 sec) 
Warmup complete CPU 1 instructions: 1048721 cycles: 369511 (Simulation time: 0 hr 0 min 43 sec) 
Warmup complete CPU 2 instructions: 1070523 cycles: 369511 (Simulation time: 0 hr 0 min 43 sec) 
Warmup complete CPU 3 instructions: 1306965 cycles: 369511 (Simulation time: 0 hr 0 min 43 sec) 
Warmup complete CPU 4 instructions: 1000003 cycles: 369511 (Simulation time: 0 hr 0 min 43 sec) 
Warmup complete CPU 5 instructions: 1074243 cycles: 369511 (Simulation time: 0 hr 0 min 43 sec) 
Warmup complete CPU 6 instructions: 1308114 cycles: 369511 (Simulation time: 0 hr 0 min 43 sec) 
Warmup complete CPU 7 instructions: 1118727 cycles: 369511 (Simulation time: 0 hr 0 min 43 sec) 
Warmup complete CPU 8 instructions: 1226746 cycles: 369511 (Simulation time: 0 hr 0 min 43 sec) 
Warmup complete CPU 9 instructions: 1048837 cycles: 369511 (Simulation time: 0 hr 0 min 43 sec) 
Warmup complete CPU 10 instructions: 1069744 cycles: 369511 (Simulation time: 0 hr 0 min 43 sec) 
Warmup complete CPU 11 instructions: 1306336 cycles: 369511 (Simulation time: 0 hr 0 min 43 sec) 
Warmup complete CPU 12 instructions: 1002402 cycles: 369511 (Simulation time: 0 hr 0 min 43 sec) 
Warmup complete CPU 13 instructions: 1074190 cycles: 369511 (Simulation time: 0 hr 0 min 43 sec) 
Warmup complete CPU 14 instructions: 1308077 cycles: 369511 (Simulation time: 0 hr 0 min 43 sec) 
Warmup complete CPU 15 instructions: 1119281 cycles: 369511 (Simulation time: 0 hr 0 min 43 sec) 

Finished CPU 15 instructions: 1000002 cycles: 1010624 cumulative IPC: 0.98949 (Simulation time: 0 hr 1 min 17 sec) 
Finished CPU 7 instructions: 1000002 cycles: 1011302 cumulative IPC: 0.988826 (Simulation time: 0 hr 1 min 17 sec) 
Finished CPU 8 instructions: 1000002 cycles: 4341082 cumulative IPC: 0.230358 (Simulation time: 0 hr 3 min 7 sec) 
Finished CPU 0 instructions: 1000000 cycles: 4359703 cumulative IPC: 0.229373 (Simulation time: 0 hr 3 min 7 sec) 
Finished CPU 12 instructions: 1000000 cycles: 4637709 cumulative IPC: 0.215624 (Simulation time: 0 hr 3 min 17 sec) 
Finished CPU 4 instructions: 1000000 cycles: 5065571 cumulative IPC: 0.197411 (Simulation time: 0 hr 3 min 34 sec) 
Heartbeat CPU 7 instructions: 10000001 cycles: 11365999 heartbeat IPC: 0.879817 cumulative IPC: 0.807646 (Simulation time: 0 hr 7 min 16 sec) 
Heartbeat CPU 15 instructions: 10000001 cycles: 11394045 heartbeat IPC: 0.877652 cumulative IPC: 0.805542 (Simulation time: 0 hr 7 min 17 sec) 
Heartbeat CPU 0 instructions: 10000000 cycles: 15121463 heartbeat IPC: 0.661312 cumulative IPC: 0.594771 (Simulation time: 0 hr 9 min 43 sec) 
Heartbeat CPU 8 instructions: 10000000 cycles: 15132017 heartbeat IPC: 0.66085 cumulative IPC: 0.594293 (Simulation time: 0 hr 9 min 44 sec) 
Heartbeat CPU 7 instructions: 20000003 cycles: 21784403 heartbeat IPC: 0.95984 cumulative IPC: 0.881689 (Simulation time: 0 hr 14 min 27 sec) 
Heartbeat CPU 15 instructions: 20000003 cycles: 21824041 heartbeat IPC: 0.958773 cumulative IPC: 0.880034 (Simulation time: 0 hr 14 min 29 sec) 
Finished CPU 14 instructions: 1000000 cycles: 22986110 cumulative IPC: 0.0435045 (Simulation time: 0 hr 15 min 29 sec) 
Finished CPU 6 instructions: 1000002 cycles: 23331008 cumulative IPC: 0.0428615 (Simulation time: 0 hr 15 min 46 sec) 
Heartbeat CPU 8 instructions: 20000004 cycles: 24793783 heartbeat IPC: 1.03501 cumulative IPC: 0.768631 (Simulation time: 0 hr 16 min 29 sec) 
Heartbeat CPU 0 instructions: 20000004 cycles: 24842604 heartbeat IPC: 1.02869 cumulative IPC: 0.76713 (Simulation time: 0 hr 16 min 31 sec) 
Finished CPU 11 instructions: 1000002 cycles: 24668555 cumulative IPC: 0.0405375 (Simulation time: 0 hr 16 min 41 sec) 
Finished CPU 3 instructions: 1000001 cycles: 24800337 cumulative IPC: 0.0403221 (Simulation time: 0 hr 16 min 46 sec) 
Heartbeat CPU 7 instructions: 30000002 cycles: 32223520 heartbeat IPC: 0.957935 cumulative IPC: 0.906676 (Simulation time: 0 hr 21 min 47 sec) 
Heartbeat CPU 15 instructions: 30000002 cycles: 32241258 heartbeat IPC: 0.959949 cumulative IPC: 0.906154 (Simulation time: 0 hr 21 min 48 sec) 
Heartbeat CPU 8 instructions: 30000000 cycles: 36173985 heartbeat IPC: 0.878719 cumulative IPC: 0.803622 (Simulation time: 0 hr 24 min 33 sec) 
Heartbeat CPU 0 instructions: 30000000 cycles: 36412899 heartbeat IPC: 0.864282 cumulative IPC: 0.798316 (Simulation time: 0 hr 24 min 45 sec) 
Heartbeat CPU 7 instructions: 40000004 cycles: 42658373 heartbeat IPC: 0.958327 cumulative IPC: 0.919421 (Simulation time: 0 hr 29 min 16 sec) 
Heartbeat CPU 15 instructions: 40000004 cycles: 42711403 heartbeat IPC: 0.955097 cumulative IPC: 0.918257 (Simulation time: 0 hr 29 min 19 sec) 
Heartbeat CPU 12 instructions: 10000003 cycles: 45856776 heartbeat IPC: 0.21807 cumulative IPC: 0.197805 (Simulation time: 0 hr 31 min 31 sec) 
Heartbeat CPU 8 instructions: 40000003 cycles: 46896635 heartbeat IPC: 0.932606 cumulative IPC: 0.833347 (Simulation time: 0 hr 32 min 11 sec) 
Heartbeat CPU 4 instructions: 10000003 cycles: 47055322 heartbeat IPC: 0.212516 cumulative IPC: 0.192778 (Simulation time: 0 hr 32 min 18 sec) 
Heartbeat CPU 0 instructions: 40000003 cycles: 47304388 heartbeat IPC: 0.918148 cumulative IPC: 0.826124 (Simulation time: 0 hr 32 min 28 sec) 
Heartbeat CPU 15 instructions: 50000003 cycles: 53169864 heartbeat IPC: 0.956164 cumulative IPC: 0.925765 (Simulation time: 0 hr 36 min 29 sec) 
Heartbeat CPU 7 instructions: 50000003 cycles: 53199247 heartbeat IPC: 0.948688 cumulative IPC: 0.925261 (Simulation time: 0 hr 36 min 30 sec) 
Finished CPU 2 instructions: 1000003 cycles: 52958711 cumulative IPC: 0.0188827 (Simulation time: 0 hr 36 min 35 sec) 
Finished CPU 10 instructions: 1000000 cycles: 53575987 cumulative IPC: 0.0186651 (Simulation time: 0 hr 36 min 59 sec) 
Heartbeat CPU 8 instructions: 50000000 cycles: 57271595 heartbeat IPC: 0.963859 cumulative IPC: 0.857144 (Simulation time: 0 hr 39 min 23 sec) 
Heartbeat CPU 0 instructions: 50000000 cycles: 57750354 heartbeat IPC: 0.957307 cumulative IPC: 0.850006 (Simulation time: 0 hr 39 min 45 sec) 
Heartbeat CPU 15 instructions: 60000002 cycles: 63618256 heartbeat IPC: 0.957085 cumulative IPC: 0.930939 (Simulation time: 0 hr 43 min 58 sec) 
Heartbeat CPU 7 instructions: 60000002 cycles: 63667655 heartbeat IPC: 0.955255 cumulative IPC: 0.930221 (Simulation time: 0 hr 44 min 1 sec) 
Heartbeat CPU 8 instructions: 60000000 cycles: 66455075 heartbeat IPC: 1.08891 cumulative IPC: 0.889351 (Simulation time: 0 hr 46 min 2 sec) 
Heartbeat CPU 0 instructions: 60000000 cycles: 66878333 heartbeat IPC: 1.09553 cumulative IPC: 0.883703 (Simulation time: 0 hr 46 min 21 sec) 
Heartbeat CPU 15 instructions: 70000000 cycles: 74354831 heartbeat IPC: 0.931396 cumulative IPC: 0.931005 (Simulation time: 0 hr 51 min 4 sec) 
Heartbeat CPU 7 instructions: 70000000 cycles: 74427449 heartbeat IPC: 0.929386 cumulative IPC: 0.9301 (Simulation time: 0 hr 51 min 7 sec) 
Heartbeat CPU 15 instructions: 80000002 cycles: 84640615 heartbeat IPC: 0.972216 cumulative IPC: 0.936035 (Simulation time: 0 hr 57 min 27 sec) 
Heartbeat CPU 7 instructions: 80000002 cycles: 84787838 heartbeat IPC: 0.965215 cumulative IPC: 0.934409 (Simulation time: 0 hr 57 min 32 sec) 
Heartbeat CPU 15 instructions: 90000000 cycles: 94983558 heartbeat IPC: 0.966843 cumulative IPC: 0.939403 (Simulation time: 1 hr 3 min 15 sec) 
Heartbeat CPU 7 instructions: 90000000 cycles: 95154542 heartbeat IPC: 0.964627 cumulative IPC: 0.937714 (Simulation time: 1 hr 3 min 21 sec) 
Heartbeat CPU 4 instructions: 20000004 cycles: 99642390 heartbeat IPC: 0.190161 cumulative IPC: 0.191392 (Simulation time: 1 hr 5 min 55 sec) 
Heartbeat CPU 12 instructions: 20000004 cycles: 100757843 heartbeat IPC: 0.182146 cumulative IPC: 0.189241 (Simulation time: 1 hr 6 min 34 sec) 
Heartbeat CPU 15 instructions: 100000000 cycles: 105291065 heartbeat IPC: 0.970167 cumulative IPC: 0.942425 (Simulation time: 1 hr 9 min 16 sec) 
Heartbeat CPU 7 instructions: 100000000 cycles: 105495561 heartbeat IPC: 0.967023 cumulative IPC: 0.940597 (Simulation time: 1 hr 9 min 23 sec) 
Finished CPU 1 instructions: 1000003 cycles: 106184884 cumulative IPC: 0.00941756 (Simulation time: 1 hr 10 min 0 sec) 
Finished CPU 9 instructions: 1000000 cycles: 106740421 cumulative IPC: 0.00936852 (Simulation time: 1 hr 10 min 21 sec) 
Heartbeat CPU 15 instructions: 110000002 cycles: 115554181 heartbeat IPC: 0.974363 cumulative IPC: 0.945271 (Simulation time: 1 hr 15 min 23 sec) 
Heartbeat CPU 7 instructions: 110000002 cycles: 115810988 heartbeat IPC: 0.969422 cumulative IPC: 0.943173 (Simulation time: 1 hr 15 min 33 sec) 
Finished CPU 13 instructions: 1000003 cycles: 124224294 cumulative IPC: 0.00804998 (Simulation time: 1 hr 20 min 55 sec) 
Finished CPU 5 instructions: 1000000 cycles: 124375877 cumulative IPC: 0.00804014 (Simulation time: 1 hr 21 min 0 sec) 

ChampSim completed all CPUs

Total Simulation Statistics (not including warmup)

CPU 0 cumulative IPC: 0.541171 instructions: 67308571 cycles: 124375877
cpu0_DTLB TOTAL     ACCESS:   12546795  HIT:   12496020  MISS:      50775
cpu0_DTLB LOAD      ACCESS:    7012636  HIT:    6966773  MISS:      45863
cpu0_DTLB RFO       ACCESS:    5534159  HIT:    5529247  MISS:       4912
cpu0_DTLB PREFETCH  ACCESS:          0  HIT:          0  MISS:          0
cpu0_DTLB WRITEBACK ACCESS:          0  HIT:          0  MISS:          0
cpu0_ITLB TOTAL     ACCESS:    5454977  HIT:    5453497  MISS:       1480
cpu0_ITLB LOAD      ACCESS:    5454977  HIT:    5453497  MISS:       1480
cpu0_ITLB RFO       ACCESS:          0  HIT:          0  MISS:          0
cpu0_ITLB PREFETCH  ACCESS:          0  HIT:          0  MISS:          0
cpu0_ITLB WRITEBACK ACCESS:          0  HIT:          0  MISS:          0
cpu0_L1I TOTAL     ACCESS:    2578045  HIT:    2552208  MISS:      25837
cpu0_L1I LOAD      ACCESS:    2578045  HIT:    2552208  MISS:      25837
cpu0_L1I RFO       ACCESS:          0  HIT:          0  MISS:          0
cpu0_L1I PREFETCH  ACCESS:          0  HIT:          0  MISS:          0
cpu0_L1I WRITEBACK ACCESS:          0  HIT:          0  MISS:          0
cpu0_STLB TOTAL     ACCESS:      52255  HIT:      50623  MISS:       1632
cpu0_STLB LOAD      ACCESS:      47343  HIT:      45905  MISS:       1438
cpu0_STLB RFO       ACCESS:       4912  HIT:       4718  MISS:        194
cpu0_STLB PREFETCH  ACCESS:          0  HIT:          0  MISS:          0
cpu0_STLB WRITEBACK ACCESS:          0  HIT:          0  MISS:          0
cpu0_L1D TOTAL     ACCESS:   21751231  HIT:   21731697  MISS:      19534
cpu0_L1D LOAD      ACCESS:    7753743  HIT:    7735312  MISS:      18431
cpu0_L1D RFO       ACCESS:   13995866  HIT:   13994847  MISS:       1019
cpu0_L1D PREFETCH  ACCESS:          0  HIT:          0  MISS:          0
cpu0_L1D WRITEBACK ACCESS:          0  HIT:          0  MISS:          0
cpu0_L2C TOTAL     ACCESS:      48932  HIT:      33493  MISS:      15439
cpu0_L2C LOAD      ACCESS:      44268  HIT:      29445  MISS:      14823
cpu0_L2C RFO       ACCESS:       1019  HIT:        439  MISS:        580
cpu0_L2C PREFETCH  ACCESS:          0  HIT:          0  MISS:          0
cpu0_L2C WRITEBACK ACCESS:       3561  HIT:       3534  MISS:         27
cpu15_LLC TOTAL     ACCESS:        999  HIT:          1  MISS:        998
cpu15_LLC LOAD      ACCESS:        902  HIT:          1  MISS:        901
cpu15_LLC RFO       ACCESS:         31  HIT:          0  MISS:         31
cpu15_LLC PREFETCH  ACCESS:          0  HIT:          0  MISS:          0
cpu15_LLC WRITEBACK ACCESS:         66  HIT:          0  MISS:         66
cpu14_LLC TOTAL     ACCESS:       1036  HIT:          1  MISS:       1035
cpu14_LLC LOAD      ACCESS:        934  HIT:          0  MISS:        934
cpu14_LLC RFO       ACCESS:         43  HIT:          1  MISS:         42
cpu14_LLC PREFETCH  ACCESS:          0  HIT:          0  MISS:          0
cpu14_LLC WRITEBACK ACCESS:         59  HIT:          0  MISS:         59
cpu13_LLC TOTAL     ACCESS:       1016  HIT:          3  MISS:       1013
cpu13_LLC LOAD      ACCESS:        928  HIT:          3  MISS:        925
cpu13_LLC RFO       ACCESS:         29  HIT:          0  MISS:         29
cpu13_LLC PREFETCH  ACCESS:          0  HIT:          0  MISS:          0
cpu13_LLC WRITEBACK ACCESS:         58  HIT:          0  MISS:         58
cpu12_LLC TOTAL     ACCESS:        973  HIT:          0  MISS:        973
cpu12_LLC LOAD      ACCESS:        875  HIT:          0  MISS:        875
cpu12_LLC RFO       ACCESS:         37  HIT:          0  MISS:         37
cpu12_LLC PREFETCH  ACCESS:          0  HIT:          0  MISS:          0
cpu12_LLC WRITEBACK ACCESS:         61  HIT:          0  MISS:         61
cpu11_LLC TOTAL     ACCESS:        973  HIT:          2  MISS:        971
cpu11_LLC LOAD      ACCESS:        871  HIT:          2  MISS:        869
cpu11_LLC RFO       ACCESS:         37  HIT:          0  MISS:         37
cpu11_LLC PREFETCH  ACCESS:          0  HIT:          0  MISS:          0
cpu11_LLC WRITEBACK ACCESS:         64  HIT:          0  MISS:         64
cpu10_LLC TOTAL     ACCESS:        960  HIT:          0  MISS:        960
cpu10_LLC LOAD      ACCESS:        884  HIT:          0  MISS:        884
cpu10_LLC RFO       ACCESS:         28  HIT:          0  MISS:         28
cpu10_LLC PREFETCH  ACCESS:          0  HIT:          0  MISS:          0
cpu10_LLC WRITEBACK ACCESS:         47  HIT:          0  MISS:         47
cpu9_LLC TOTAL     ACCESS:       1025  HIT:          1  MISS:       1024
cpu9_LLC LOAD      ACCESS:        932  HIT:          1  MISS:        931
cpu9_LLC RFO       ACCESS:         35  HIT:          0  MISS:         35
cpu9_LLC PREFETCH  ACCESS:          0  HIT:          0  MISS:          0
cpu9_LLC WRITEBACK ACCESS:         57  HIT:          0  MISS:         57
cpu8_LLC TOTAL     ACCESS:       1014  HIT:          2  MISS:       1012
cpu8_LLC LOAD      ACCESS:        914  HIT:          2  MISS:        912
cpu8_LLC RFO       ACCESS:         47  HIT:          0  MISS:         47
cpu8_LLC PREFETCH  ACCESS:          0  HIT:          0  MISS:          0
cpu8_LLC WRITEBACK ACCESS:         52  HIT:          0  MISS:         52
cpu7_LLC TOTAL     ACCESS:       1024  HIT:          1  MISS:       1023
cpu7_LLC LOAD      ACCESS:        924  HIT:          1  MISS:        923
cpu7_LLC RFO       ACCESS:         36  HIT:          0  MISS:         36
cpu7_LLC PREFETCH  ACCESS:          0  HIT:          0  MISS:          0
cpu7_LLC WRITEBACK ACCESS:         64  HIT:          0  MISS:         64
cpu6_LLC TOTAL     ACCESS:       1052  HIT:          0  MISS:       1052
cpu6_LLC LOAD      ACCESS:        951  HIT:          0  MISS:        951
cpu6_LLC RFO       ACCESS:         33  HIT:          0  MISS:         33
cpu6_LLC PREFETCH  ACCESS:          0  HIT:          0  MISS:          0
cpu6_LLC WRITEBACK ACCESS:         67  HIT:          0  MISS:         67
cpu5_LLC TOTAL     ACCESS:       1038  HIT:          0  MISS:       1038
cpu5_LLC LOAD      ACCESS:        949  HIT:          0  MISS:        949
cpu5_LLC RFO       ACCESS:         27  HIT:          0  MISS:         27
cpu5_LLC PREFETCH  ACCESS:          0  HIT:          0  MISS:          0
cpu5_LLC WRITEBACK ACCESS:         61  HIT:          0  MISS:         61
cpu4_LLC TOTAL     ACCESS:       1070  HIT:          0  MISS:       1070
cpu4_LLC LOAD      ACCESS:        963  HIT:          0  MISS:        963
cpu4_LLC RFO       ACCESS:         36  HIT:          0  MISS:         36
cpu4_LLC PREFETCH  ACCESS:          0  HIT:          0  MISS:          0
cpu4_LLC WRITEBACK ACCESS:         71  HIT:          0  MISS:         71
cpu3_LLC TOTAL     ACCESS:       1093  HIT:          5  MISS:       1088
cpu3_LLC LOAD      ACCESS:        984  HIT:          2  MISS:        982
cpu3_LLC RFO       ACCESS:         39  HIT:          3  MISS:         36
cpu3_LLC PREFETCH  ACCESS:          0  HIT:          0  MISS:          0
cpu3_LLC WRITEBACK ACCESS:         70  HIT:          0  MISS:         70
cpu2_LLC TOTAL     ACCESS:       1030  HIT:          2  MISS:       1028
cpu2_LLC LOAD      ACCESS:        925  HIT:          2  MISS:        923
cpu2_LLC RFO       ACCESS:         42  HIT:          0  MISS:         42
cpu2_LLC PREFETCH  ACCESS:          0  HIT:          0  MISS:          0
cpu2_LLC WRITEBACK ACCESS:         62  HIT:          0  MISS:         62
cpu1_LLC TOTAL     ACCESS:       1025  HIT:          0  MISS:       1025
cpu1_LLC LOAD      ACCESS:        924  HIT:          0  MISS:        924
cpu1_LLC RFO       ACCESS:         41  HIT:          0  MISS:         41
cpu1_LLC PREFETCH  ACCESS:          0  HIT:          0  MISS:          0
cpu1_LLC WRITEBACK ACCESS:         59  HIT:          0  MISS:         59
cpu0_LLC TOTAL     ACCESS:       1068  HIT:          0  MISS:       1068
cpu0_LLC LOAD      ACCESS:        963  HIT:          0  MISS:        963
cpu0_LLC RFO       ACCESS:         39  HIT:          0  MISS:         39
cpu0_LLC PREFETCH  ACCESS:          0  HIT:          0  MISS:          0
cpu0_LLC WRITEBACK ACCESS:         66  HIT:          0  MISS:         66

CPU 1 cumulative IPC: 0.0106504 instructions: 1324654 cycles: 124375877
cpu1_DTLB TOTAL     ACCESS:     448681  HIT:     445455  MISS:       3226
cpu1_DTLB LOAD      ACCESS:     312523  HIT:     309438  MISS:       3085
cpu1_DTLB RFO       ACCESS:     136158  HIT:     136017  MISS:        141
cpu1_DTLB PREFETCH  ACCESS:          0  HIT:          0  MISS:          0
cpu1_DTLB WRITEBACK ACCESS:          0  HIT:          0  MISS:          0
cpu1_ITLB TOTAL     ACCESS:     125499  HIT:     125496  MISS:          3
cpu1_ITLB LOAD      ACCESS:     125499  HIT:     125496  MISS:          3
cpu1_ITLB RFO       ACCESS:          0  HIT:          0  MISS:          0
cpu1_ITLB PREFETCH  ACCESS:          0  HIT:          0  MISS:          0
cpu1_ITLB WRITEBACK ACCESS:          0  HIT:          0  MISS:          0
cpu1_L1I TOTAL     ACCESS:      96013  HIT:      95985  MISS:         28
cpu1_L1I LOAD      ACCESS:      96013  HIT:      95985  MISS:         28
cpu1_L1I RFO       ACCESS:          0  HIT:          0  MISS:          0
cpu1_L1I PREFETCH  ACCESS:          0  HIT:          0  MISS:          0
cpu1_L1I WRITEBACK ACCESS:          0  HIT:          0  MISS:          0
cpu1_STLB TOTAL     ACCESS:       3229  HIT:       1480  MISS:       1749
cpu1_STLB LOAD      ACCESS:       3088  HIT:       1371  MISS:       1717
cpu1_STLB RFO       ACCESS:        141  HIT:        109  MISS:         32
cpu1_STLB PREFETCH  ACCESS:          0  HIT:          0  MISS:          0
cpu1_STLB WRITEBACK ACCESS:          0  HIT:          0  MISS:          0
cpu1_L1D TOTAL     ACCESS:     612313  HIT:     543112  MISS:      69201
cpu1_L1D LOAD      ACCESS:     304599  HIT:     237428  MISS:      67171
cpu1_L1D RFO       ACCESS:     305964  HIT:     304030  MISS:       1934
cpu1_L1D PREFETCH  ACCESS:          0  HIT:          0  MISS:          0
cpu1_L1D WRITEBACK ACCESS:          0  HIT:          0  MISS:          0
cpu1_L2C TOTAL     ACCESS:      75621  HIT:       7921  MISS:      67700
cpu1_L2C LOAD      ACCESS:      67199  HIT:       1467  MISS:      65732
cpu1_L2C RFO       ACCESS:       1934  HIT:         46  MISS:       1888
cpu1_L2C PREFETCH  ACCESS:          0  HIT:          0  MISS:          0
cpu1_L2C WRITEBACK ACCESS:       6392  HIT:       6340  MISS:         52
cpu15_LLC TOTAL     ACCESS:       4552  HIT:          0  MISS:       4552
cpu15_LLC LOAD      ACCESS:       4100  HIT:          0  MISS:       4100
cpu15_LLC RFO       ACCESS:        117  HIT:          0  MISS:        117
cpu15_LLC PREFETCH  ACCESS:          0  HIT:          0  MISS:          0
cpu15_LLC WRITEBACK ACCESS:        335  HIT:          0  MISS:        335
cpu14_LLC TOTAL     ACCESS:       4568  HIT:          4  MISS:       4564
cpu14_LLC LOAD      ACCESS:       4100  HIT:          4  MISS:       4096
cpu14_LLC RFO       ACCESS:        124  HIT:          0  MISS:        124
cpu14_LLC PREFETCH  ACCESS:          0  HIT:          0  MISS:          0
cpu14_LLC WRITEBACK ACCESS:        340  HIT:          0  MISS:        340
cpu13_LLC TOTAL     ACCESS:       4577  HIT:          3  MISS:       4574
cpu13_LLC LOAD      ACCESS:       4112  HIT:          2  MISS:       4110
cpu13_LLC RFO       ACCESS:        120  HIT:          1  MISS:        119
cpu13_LLC PREFETCH  ACCESS:          0  HIT:          0  MISS:          0
cpu13_LLC WRITEBACK ACCESS:        343  HIT:          0  MISS:        343
cpu12_LLC TOTAL     ACCESS:       4593  HIT:          1  MISS:       4592
cpu12_LLC LOAD      ACCESS:       4120  HIT:          1  MISS:       4119
cpu12_LLC RFO       ACCESS:        119  HIT:          0  MISS:        119
cpu12_LLC PREFETCH  ACCESS:          0  HIT:          0  MISS:          0
cpu12_LLC WRITEBACK ACCESS:        354  HIT:          0  MISS:        354
cpu11_LLC TOTAL     ACCESS:       4576  HIT:          4  MISS:       4572
cpu11_LLC LOAD      ACCESS:       4112  HIT:          4  MISS:       4108
cpu11_LLC RFO       ACCESS:        117  HIT:          0  MISS:        117
cpu11_LLC PREFETCH  ACCESS:          0  HIT:          0  MISS:          0
cpu11_LLC WRITEBACK ACCESS:        347  HIT:          0  MISS:        347
cpu10_LLC TOTAL     ACCESS:       4548  HIT:          1  MISS:       4547
cpu10_LLC LOAD      ACCESS:       4097  HIT:          1  MISS:       4096
cpu10_LLC RFO       ACCESS:        115  HIT:          0  MISS:        115
cpu10_LLC PREFETCH  ACCESS:          0  HIT:          0  MISS:          0
cpu10_LLC WRITEBACK ACCESS:        336  HIT:          0  MISS:        336
cpu9_LLC TOTAL     ACCESS:       4570  HIT:          4  MISS:       4566
cpu9_LLC LOAD      ACCESS:       4106  HIT:          4  MISS:       4102
cpu9_LLC RFO       ACCESS:        116  HIT:          0  MISS:        116
cpu9_LLC PREFETCH  ACCESS:          0  HIT:          0  MISS:          0
cpu9_LLC WRITEBACK ACCESS:        346  HIT:          0  MISS:        346
cpu8_LLC TOTAL     ACCESS:       4554  HIT:          2  MISS:       4552
cpu8_LLC LOAD      ACCESS:       4109  HIT:          2  MISS:       4107
cpu8_LLC RFO       ACCESS:        114  HIT:          0  MISS:        114
cpu8_LLC PREFETCH  ACCESS:          0  HIT:          0  MISS:          0
cpu8_LLC WRITEBACK ACCESS:        331  HIT:          0  MISS:        331
cpu7_LLC TOTAL     ACCESS:       4559  HIT:          2  MISS:       4557
cpu7_LLC LOAD      ACCESS:       4101  HIT:          2  MISS:       4099
cpu7_LLC RFO       ACCESS:        115  HIT:          0  MISS:        115
cpu7_LLC PREFETCH  ACCESS:          0  HIT:          0  MISS:          0
cpu7_LLC WRITEBACK ACCESS:        342  HIT:          0  MISS:        342
cpu6_LLC TOTAL     ACCESS:       4553  HIT:          0  MISS:       4553
cpu6_LLC LOAD      ACCESS:       4092  HIT:          0  MISS:       4092
cpu6_LLC RFO       ACCESS:        117  HIT:          0  MISS:        117
cpu6_LLC PREFETCH  ACCESS:          0  HIT:          0  MISS:          0
cpu6_LLC WRITEBACK ACCESS:        341  HIT:          0  MISS:        341
cpu5_LLC TOTAL     ACCESS:       4572  HIT:          1  MISS:       4571
cpu5_LLC LOAD      ACCESS:       4108  HIT:          1  MISS:       4107
cpu5_LLC RFO       ACCESS:        114  HIT:          0  MISS:        114
cpu5_LLC PREFETCH  ACCESS:          0  HIT:          0  MISS:          0
cpu5_LLC WRITEBACK ACCESS:        350  HIT:          0  MISS:        350
cpu4_LLC TOTAL     ACCESS:       4557  HIT:          2  MISS:       4555
cpu4_LLC LOAD      ACCESS:       4116  HIT:          2  MISS:       4114
cpu4_LLC RFO       ACCESS:        121  HIT:          0  MISS:        121
cpu4_LLC PREFETCH  ACCESS:          0  HIT:          0  MISS:          0
cpu4_LLC WRITEBACK ACCESS:        318  HIT:          0  MISS:        318
cpu3_LLC TOTAL     ACCESS:       4585  HIT:          1  MISS:       4584
cpu3_LLC LOAD      ACCESS:       4122  HIT:          1  MISS:       4121
cpu3_LLC RFO       ACCESS:        120  HIT:          0  MISS:        120
cpu3_LLC PREFETCH  ACCESS:          0  HIT:          0  MISS:          0
cpu3_LLC WRITEBACK ACCESS:        339  HIT:          0  MISS:        339
cpu2_LLC TOTAL     ACCESS:       4562  HIT:          1  MISS:       4561
cpu2_LLC LOAD      ACCESS:       4113  HIT:          1  MISS:       4112
cpu2_LLC RFO       ACCESS:        118  HIT:          0  MISS:        118
cpu2_LLC PREFETCH  ACCESS:          0  HIT:          0  MISS:          0
cpu2_LLC WRITEBACK ACCESS:        331  HIT:          0  MISS:        331
cpu1_LLC TOTAL     ACCESS:       4574  HIT:          0  MISS:       4574
cpu1_LLC LOAD      ACCESS:       4113  HIT:          0  MISS:       4113
cpu1_LLC RFO       ACCESS:        121  HIT:          0  MISS:        121
cpu1_LLC PREFETCH  ACCESS:          0  HIT:          0  MISS:          0
cpu1_LLC WRITEBACK ACCESS:        334  HIT:          0  MISS:        334
cpu0_LLC TOTAL     ACCESS:       4591  HIT:          1  MISS:       4590
cpu0_LLC LOAD      ACCESS:       4111  HIT:          1  MISS:       4110
cpu0_LLC RFO       ACCESS:        120  HIT:          0  MISS:        120
cpu0_LLC PREFETCH  ACCESS:          0  HIT:          0  MISS:          0
cpu0_LLC WRITEBACK ACCESS:        356  HIT:          0  MISS:        356

CPU 2 cumulative IPC: 0.0196235 instructions: 2440687 cycles: 124375877
cpu2_DTLB TOTAL     ACCESS:     657563  HIT:     606640  MISS:      50923
cpu2_DTLB LOAD      ACCESS:     414636  HIT:     369981  MISS:      44655
cpu2_DTLB RFO       ACCESS:     242927  HIT:     236659  MISS:       6268
cpu2_DTLB PREFETCH  ACCESS:          0  HIT:          0  MISS:          0
cpu2_DTLB WRITEBACK ACCESS:          0  HIT:          0  MISS:          0
cpu2_ITLB TOTAL     ACCESS:     259888  HIT:     255908  MISS:       3980
cpu2_ITLB LOAD      ACCESS:     259888  HIT:     255908  MISS:       3980
cpu2_ITLB RFO       ACCESS:          0  HIT:          0  MISS:          0
cpu2_ITLB PREFETCH  ACCESS:          0  HIT:          0  MISS:          0
cpu2_ITLB WRITEBACK ACCESS:          0  HIT:          0  MISS:          0
cpu2_L1I TOTAL     ACCESS:     229239  HIT:     227534  MISS:       1705
cpu2_L1I LOAD      ACCESS:     229239  HIT:     227534  MISS:       1705
cpu2_L1I RFO       ACCESS:          0  HIT:          0  MISS:          0
cpu2_L1I PREFETCH  ACCESS:          0  HIT:          0  MISS:          0
cpu2_L1I WRITEBACK ACCESS:          0  HIT:          0  MISS:          0
cpu2_STLB TOTAL     ACCESS:      54903  HIT:      43136  MISS:      11767
cpu2_STLB LOAD      ACCESS:      48635  HIT:      39053  MISS:       9582
cpu2_STLB RFO       ACCESS:       6268  HIT:       4083  MISS:       2185
cpu2_STLB PREFETCH  ACCESS:          0  HIT:          0  MISS:          0
cpu2_STLB WRITEBACK ACCESS:          0  HIT:          0  MISS:          0
cpu2_L1D TOTAL     ACCESS:     871759  HIT:     826715  MISS:      45044
cpu2_L1D LOAD      ACCESS:     432304  HIT:     393258  MISS:      39046
cpu2_L1D RFO       ACCESS:     427816  HIT:     421974  MISS:       5842
cpu2_L1D PREFETCH  ACCESS:          0  HIT:          0  MISS:          0
cpu2_L1D WRITEBACK ACCESS:          0  HIT:          0  MISS:          0
cpu2_L2C TOTAL     ACCESS:      68647  HIT:      36099  MISS:      32548
cpu2_L2C LOAD      ACCESS:      40751  HIT:      12578  MISS:      28173
cpu2_L2C RFO       ACCESS:       5842  HIT:       1522  MISS:       4320
cpu2_L2C PREFETCH  ACCESS:          0  HIT:          0  MISS:          0
cpu2_L2C WRITEBACK ACCESS:      21898  HIT:      21867  MISS:         31
cpu15_LLC TOTAL     ACCESS:       3000  HIT:         30  MISS:       2970
cpu15_LLC LOAD      ACCESS:       1749  HIT:         19  MISS:       1730
cpu15_LLC RFO       ACCESS:        270  HIT:         11  MISS:        259
cpu15_LLC PREFETCH  ACCESS:          0  HIT:          0  MISS:          0
cpu15_LLC WRITEBACK ACCESS:        981  HIT:          0  MISS:        981
cpu14_LLC TOTAL     ACCESS:       3167  HIT:         27  MISS:       3140
cpu14_LLC LOAD      ACCESS:       1891  HIT:         18  MISS:       1873
cpu14_LLC RFO       ACCESS:        263  HIT:          9  MISS:        254
cpu14_LLC PREFETCH  ACCESS:          0  HIT:          0  MISS:          0
cpu14_LLC WRITEBACK ACCESS:       1012  HIT:          0  MISS:       1012
cpu13_LLC TOTAL     ACCESS:       3007  HIT:         28  MISS:       2979
cpu13_LLC LOAD      ACCESS:       1799  HIT:         19  MISS:       1780
cpu13_LLC RFO       ACCESS:        253  HIT:          9  MISS:        244
cpu13_LLC PREFETCH  ACCESS:          0  HIT:          0  MISS:          0
cpu13_LLC WRITEBACK ACCESS:        954  HIT:          0  MISS:        954
cpu12_LLC TOTAL     ACCESS:       2960  HIT:         34  MISS:       2926
cpu12_LLC LOAD      ACCESS:       1765  HIT:         27  MISS:       1738
cpu12_LLC RFO       ACCESS:        255  HIT:          7  MISS:        248
cpu12_LLC PREFETCH  ACCESS:          0  HIT:          0  MISS:          0
cpu12_LLC WRITEBACK ACCESS:        939  HIT:          0  MISS:        939
cpu11_LLC TOTAL     ACCESS:       2960  HIT:         28  MISS:       2932
cpu11_LLC LOAD      ACCESS:       1755  HIT:         24  MISS:       1731
cpu11_LLC RFO       ACCESS:        246  HIT:          4  MISS:        242
cpu11_LLC PREFETCH  ACCESS:          0  HIT:          0  MISS:          0
cpu11_LLC WRITEBACK ACCESS:        957  HIT:          0  MISS:        957
cpu10_LLC TOTAL     ACCESS:       2934  HIT:         28  MISS:       2906
cpu10_LLC LOAD      ACCESS:       1734  HIT:         23  MISS:       1711
cpu10_LLC RFO       ACCESS:        248  HIT:          5  MISS:        243
cpu10_LLC PREFETCH  ACCESS:          0  HIT:          0  MISS:          0
cpu10_LLC WRITEBACK ACCESS:        949  HIT:          0  MISS:        949
cpu9_LLC TOTAL     ACCESS:       2966  HIT:         36  MISS:       2930
cpu9_LLC LOAD      ACCESS:       1740  HIT:         28  MISS:       1712
cpu9_LLC RFO       ACCESS:        261  HIT:          8  MISS:        253
cpu9_LLC PREFETCH  ACCESS:          0  HIT:          0  MISS:          0
cpu9_LLC WRITEBACK ACCESS:        964  HIT:          0  MISS:        964
cpu8_LLC TOTAL     ACCESS:       3144  HIT:         32  MISS:       3112
cpu8_LLC LOAD      ACCESS:       1799  HIT:         20  MISS:       1779
cpu8_LLC RFO       ACCESS:        298  HIT:         12  MISS:        286
cpu8_LLC PREFETCH  ACCESS:          0  HIT:          0  MISS:          0
cpu8_LLC WRITEBACK ACCESS:       1043  HIT:          0  MISS:       1043
cpu7_LLC TOTAL     ACCESS:       3014  HIT:         32  MISS:       2982
cpu7_LLC LOAD      ACCESS:       1746  HIT:         21  MISS:       1725
cpu7_LLC RFO       ACCESS:        276  HIT:         11  MISS:        265
cpu7_LLC PREFETCH  ACCESS:          0  HIT:          0  MISS:          0
cpu7_LLC WRITEBACK ACCESS:        988  HIT:          0  MISS:        988
cpu6_LLC TOTAL     ACCESS:       2963  HIT:         33  MISS:       2930
cpu6_LLC LOAD      ACCESS:       1736  HIT:         25  MISS:       1711
cpu6_LLC RFO       ACCESS:        257  HIT:          8  MISS:        249
cpu6_LLC PREFETCH  ACCESS:          0  HIT:          0  MISS:          0
cpu6_LLC WRITEBACK ACCESS:        968  HIT:          0  MISS:        968
cpu5_LLC TOTAL     ACCESS:       3016  HIT:         35  MISS:       2981
cpu5_LLC LOAD      ACCESS:       1752  HIT:         28  MISS:       1724
cpu5_LLC RFO       ACCESS:        293  HIT:          7  MISS:        286
cpu5_LLC PREFETCH  ACCESS:          0  HIT:          0  MISS:          0
cpu5_LLC WRITEBACK ACCESS:        971  HIT:          0  MISS:        971
cpu4_LLC TOTAL     ACCESS:       3034  HIT:         23  MISS:       3011
cpu4_LLC LOAD      ACCESS:       1720  HIT:         16  MISS:       1704
cpu4_LLC RFO       ACCESS:        298  HIT:          7  MISS:        291
cpu4_LLC PREFETCH  ACCESS:          0  HIT:          0  MISS:          0
cpu4_LLC WRITEBACK ACCESS:       1012  HIT:          0  MISS:       1012
cpu3_LLC TOTAL     ACCESS:       3015  HIT:         29  MISS:       2986
cpu3_LLC LOAD      ACCESS:       1778  HIT:         23  MISS:       1755
cpu3_LLC RFO       ACCESS:        259  HIT:          6  MISS:        253
cpu3_LLC PREFETCH  ACCESS:          0  HIT:          0  MISS:          0
cpu3_LLC WRITEBACK ACCESS:        978  HIT:          0  MISS:        978
cpu2_LLC TOTAL     ACCESS:       2969  HIT:         31  MISS:       2938
cpu2_LLC LOAD      ACCESS:       1708  HIT:         23  MISS:       1685
cpu2_LLC RFO       ACCESS:        279  HIT:          8  MISS:        271
cpu2_LLC PREFETCH  ACCESS:          0  HIT:          0  MISS:          0
cpu2_LLC WRITEBACK ACCESS:        981  HIT:          0  MISS:        981
cpu1_LLC TOTAL     ACCESS:       2906  HIT:         24  MISS:       2882
cpu1_LLC LOAD      ACCESS:       1697  HIT:         14  MISS:       1683
cpu1_LLC RFO       ACCESS:        279  HIT:         10  MISS:        269
cpu1_LLC PREFETCH  ACCESS:          0  HIT:          0  MISS:          0
cpu1_LLC WRITEBACK ACCESS:        930  HIT:          0  MISS:        930
cpu0_LLC TOTAL     ACCESS:       3132  HIT:         27  MISS:       3105
cpu0_LLC LOAD      ACCESS:       1804  HIT:         24  MISS:       1780
cpu0_LLC RFO       ACCESS:        285  HIT:          3  MISS:        282
cpu0_LLC PREFETCH  ACCESS:          0  HIT:          0  MISS:          0
cpu0_LLC WRITEBACK ACCESS:       1043  HIT:          0  MISS:       1043

CPU 3 cumulative IPC: 0.0367561 instructions: 4571574 cycles: 124375877
cpu3_DTLB TOTAL     ACCESS:     847519  HIT:     841325  MISS:       6194
cpu3_DTLB LOAD      ACCESS:     386121  HIT:     385281  MISS:        840
cpu3_DTLB RFO       ACCESS:     461398  HIT:     456044  MISS:       5354
cpu3_DTLB PREFETCH  ACCESS:          0  HIT:          0  MISS:          0
cpu3_DTLB WRITEBACK ACCESS:          0  HIT:          0  MISS:          0
cpu3_ITLB TOTAL     ACCESS:      85431  HIT:      85431  MISS:          0
cpu3_ITLB LOAD      ACCESS:      85431  HIT:      85431  MISS:          0
cpu3_ITLB RFO       ACCESS:          0  HIT:          0  MISS:          0
cpu3_ITLB PREFETCH  ACCESS:          0  HIT:          0  MISS:          0
cpu3_ITLB WRITEBACK ACCESS:          0  HIT:          0  MISS:          0
cpu3_L1I TOTAL     ACCESS:     107366  HIT:     107366  MISS:          0
cpu3_L1I LOAD      ACCESS:     107366  HIT:     107366  MISS:          0
cpu3_L1I RFO       ACCESS:          0  HIT:          0  MISS:          0
cpu3_L1I PREFETCH  ACCESS:          0  HIT:          0  MISS:          0
cpu3_L1I WRITEBACK ACCESS:          0  HIT:          0  MISS:          0
cpu3_STLB TOTAL     ACCESS:       6194  HIT:       2836  MISS:       3358
cpu3_STLB LOAD      ACCESS:        840  HIT:          0  MISS:        840
cpu3_STLB RFO       ACCESS:       5354  HIT:       2836  MISS:       2518
cpu3_STLB PREFETCH  ACCESS:          0  HIT:          0  MISS:          0
cpu3_STLB WRITEBACK ACCESS:          0  HIT:          0  MISS:          0
cpu3_L1D TOTAL     ACCESS:    1073633  HIT:     718833  MISS:     354800
cpu3_L1D LOAD      ACCESS:     251057  HIT:     197296  MISS:      53761
cpu3_L1D RFO       ACCESS:     819218  HIT:     518180  MISS:     301038
cpu3_L1D PREFETCH  ACCESS:          0  HIT:          0  MISS:          0
cpu3_L1D WRITEBACK ACCESS:          0  HIT:          0  MISS:          0
cpu3_L2C TOTAL     ACCESS:     655839  HIT:     435925  MISS:     219914
cpu3_L2C LOAD      ACCESS:      53761  HIT:          0  MISS:      53761
cpu3_L2C RFO       ACCESS:     301038  HIT:     134891  MISS:     166147
cpu3_L2C PREFETCH  ACCESS:          0  HIT:          0  MISS:          0
cpu3_L2C WRITEBACK ACCESS:     301039  HIT:     301034  MISS:          5
cpu15_LLC TOTAL     ACCESS:      24110  HIT:       1162  MISS:      22948
cpu15_LLC LOAD      ACCESS:       3359  HIT:          0  MISS:       3359
cpu15_LLC RFO       ACCESS:      10378  HIT:        236  MISS:      10142
cpu15_LLC PREFETCH  ACCESS:          0  HIT:          0  MISS:          0
cpu15_LLC WRITEBACK ACCESS:      10373  HIT:        926  MISS:       9447
cpu14_LLC TOTAL     ACCESS:      24132  HIT:       1149  MISS:      22983
cpu14_LLC LOAD      ACCESS:       3359  HIT:          0  MISS:       3359
cpu14_LLC RFO       ACCESS:      10388  HIT:        240  MISS:      10148
cpu14_LLC PREFETCH  ACCESS:          0  HIT:          0  MISS:          0
cpu14_LLC WRITEBACK ACCESS:      10385  HIT:        909  MISS:       9476
cpu13_LLC TOTAL     ACCESS:      24100  HIT:       1097  MISS:      23003
cpu13_LLC LOAD      ACCESS:       3359  HIT:          0  MISS:       3359
cpu13_LLC RFO       ACCESS:      10371  HIT:        231  MISS:      10140
cpu13_LLC PREFETCH  ACCESS:          0  HIT:          0  MISS:          0
cpu13_LLC WRITEBACK ACCESS:      10370  HIT:        866  MISS:       9504
cpu12_LLC TOTAL     ACCESS:      24143  HIT:       1174  MISS:      22969
cpu12_LLC LOAD      ACCESS:       3359  HIT:          0  MISS:       3359
cpu12_LLC RFO       ACCESS:      10394  HIT:        248  MISS:      10146
cpu12_LLC PREFETCH  ACCESS:          0  HIT:          0  MISS:          0
cpu12_LLC WRITEBACK ACCESS:      10389  HIT:        926  MISS:       9463
cpu11_LLC TOTAL     ACCESS:      24130  HIT:       1169  MISS:      22961
cpu11_LLC LOAD      ACCESS:       3363  HIT:          0  MISS:       3363
cpu11_LLC RFO       ACCESS:      10386  HIT:        232  MISS:      10154
cpu11_LLC PREFETCH  ACCESS:          0  HIT:          0  MISS:          0
cpu11_LLC WRITEBACK ACCESS:      10381  HIT:        937  MISS:       9444
cpu10_LLC TOTAL     ACCESS:      24115  HIT:       1154  MISS:      22961
cpu10_LLC LOAD      ACCESS:       3361  HIT:          0  MISS:       3361
cpu10_LLC RFO       ACCESS:      10380  HIT:        227  MISS:      10153
cpu10_LLC PREFETCH  ACCESS:          0  HIT:          0  MISS:          0
cpu10_LLC WRITEBACK ACCESS:      10374  HIT:        927  MISS:       9447
cpu9_LLC TOTAL     ACCESS:      24135  HIT:       1166  MISS:      22969
cpu9_LLC LOAD      ACCESS:       3361  HIT:          0  MISS:       3361
cpu9_LLC RFO       ACCESS:      10389  HIT:        249  MISS:      10140
cpu9_LLC PREFETCH  ACCESS:          0  HIT:          0  MISS:          0
cpu9_LLC WRITEBACK ACCESS:      10385  HIT:        917  MISS:       9468
cpu8_LLC TOTAL     ACCESS:      24101  HIT:       1099  MISS:      23002
cpu8_LLC LOAD      ACCESS:       3360  HIT:          0  MISS:       3360
cpu8_LLC RFO       ACCESS:      10371  HIT:        230  MISS:      10141
cpu8_LLC PREFETCH  ACCESS:          0  HIT:          0  MISS:          0
cpu8_LLC WRITEBACK ACCESS:      10370  HIT:        869  MISS:       9501
cpu7_LLC TOTAL     ACCESS:      24142  HIT:       1141  MISS:      23001
cpu7_LLC LOAD      ACCESS:       3360  HIT:          0  MISS:       3360
cpu7_LLC RFO       ACCESS:      10394  HIT:        245  MISS:      10149
cpu7_LLC PREFETCH  ACCESS:          0  HIT:          0  MISS:          0
cpu7_LLC WRITEBACK ACCESS:      10388  HIT:        896  MISS:       9492
cpu6_LLC TOTAL     ACCESS:      24129  HIT:       1166  MISS:      22963
cpu6_LLC LOAD      ACCESS:       3360  HIT:          0  MISS:       3360
cpu6_LLC RFO       ACCESS:      10387  HIT:        238  MISS:      10149
cpu6_LLC PREFETCH  ACCESS:          0  HIT:          0  MISS:          0
cpu6_LLC WRITEBACK ACCESS:      10382  HIT:        928  MISS:       9454
cpu5_LLC TOTAL     ACCESS:      24116  HIT:       1165  MISS:      22951
cpu5_LLC LOAD      ACCESS:       3360  HIT:          0  MISS:       3360
cpu5_LLC RFO       ACCESS:      10380  HIT:        233  MISS:      10147
cpu5_LLC PREFETCH  ACCESS:          0  HIT:          0  MISS:          0
cpu5_LLC WRITEBACK ACCESS:      10376  HIT:        932  MISS:       9444
cpu4_LLC TOTAL     ACCESS:      24136  HIT:       1163  MISS:      22973
cpu4_LLC LOAD      ACCESS:       3360  HIT:          0  MISS:       3360
cpu4_LLC RFO       ACCESS:      10389  HIT:        232  MISS:      10157
cpu4_LLC PREFETCH  ACCESS:          0  HIT:          0  MISS:          0
cpu4_LLC WRITEBACK ACCESS:      10387  HIT:        931  MISS:       9456
cpu3_LLC TOTAL     ACCESS:      24104  HIT:       1114  MISS:      22990
cpu3_LLC LOAD      ACCESS:       3360  HIT:          0  MISS:       3360
cpu3_LLC RFO       ACCESS:      10372  HIT:        227  MISS:      10145
cpu3_LLC PREFETCH  ACCESS:          0  HIT:          0  MISS:          0
cpu3_LLC WRITEBACK ACCESS:      10372  HIT:        887  MISS:       9485
cpu2_LLC TOTAL     ACCESS:      24145  HIT:       1201  MISS:      22944
cpu2_LLC LOAD      ACCESS:       3360  HIT:          0  MISS:       3360
cpu2_LLC RFO       ACCESS:      10394  HIT:        237  MISS:      10157
cpu2_LLC PREFETCH  ACCESS:          0  HIT:          0  MISS:          0
cpu2_LLC WRITEBACK ACCESS:      10391  HIT:        964  MISS:       9427
cpu1_LLC TOTAL     ACCESS:      24134  HIT:       1184  MISS:      22950
cpu1_LLC LOAD      ACCESS:       3360  HIT:          0  MISS:       3360
cpu1_LLC RFO       ACCESS:      10389  HIT:        227  MISS:      10162
cpu1_LLC PREFETCH  ACCESS:          0  HIT:          0  MISS:          0
cpu1_LLC WRITEBACK ACCESS:      10385  HIT:        957  MISS:       9428
cpu0_LLC TOTAL     ACCESS:      24110  HIT:       1149  MISS:      22961
cpu0_LLC LOAD      ACCESS:       3360  HIT:          0  MISS:       3360
cpu0_LLC RFO       ACCESS:      10378  HIT:        234  MISS:      10144
cpu0_LLC PREFETCH  ACCESS:          0  HIT:          0  MISS:          0
cpu0_LLC WRITEBACK ACCESS:      10372  HIT:        915  MISS:       9457

CPU 4 cumulative IPC: 0.193692 instructions: 24090559 cycles: 124375877
cpu4_DTLB TOTAL     ACCESS:    5793043  HIT:    4867375  MISS:     925668
cpu4_DTLB LOAD      ACCESS:    5014064  HIT:    4197861  MISS:     816203
cpu4_DTLB RFO       ACCESS:     778979  HIT:     669514  MISS:     109465
cpu4_DTLB PREFETCH  ACCESS:          0  HIT:          0  MISS:          0
cpu4_DTLB WRITEBACK ACCESS:          0  HIT:          0  MISS:          0
cpu4_ITLB TOTAL     ACCESS:     475269  HIT:     475259  MISS:         10
cpu4_ITLB LOAD      ACCESS:     475269  HIT:     475259  MISS:         10
cpu4_ITLB RFO       ACCESS:          0  HIT:          0  MISS:          0
cpu4_ITLB PREFETCH  ACCESS:          0  HIT:          0  MISS:          0
cpu4_ITLB WRITEBACK ACCESS:          0  HIT:          0  MISS:          0
cpu4_L1I TOTAL     ACCESS:    2394073  HIT:    2185954  MISS:     208119
cpu4_L1I LOAD      ACCESS:    2394073  HIT:    2185954  MISS:     208119
cpu4_L1I RFO       ACCESS:          0  HIT:          0  MISS:          0
cpu4_L1I PREFETCH  ACCESS:          0  HIT:          0  MISS:          0
cpu4_L1I WRITEBACK ACCESS:          0  HIT:          0  MISS:          0
cpu4_STLB TOTAL     ACCESS:     925678  HIT:     924666  MISS:       1012
cpu4_STLB LOAD      ACCESS:     816213  HIT:     815428  MISS:        785
cpu4_STLB RFO       ACCESS:     109465  HIT:     109238  MISS:        227
cpu4_STLB PREFETCH  ACCESS:          0  HIT:          0  MISS:          0
cpu4_STLB WRITEBACK ACCESS:          0  HIT:          0  MISS:          0
cpu4_L1D TOTAL     ACCESS:    8781864  HIT:    7033380  MISS:    1748484
cpu4_L1D LOAD      ACCESS:    6872509  HIT:    5267205  MISS:    1605304
cpu4_L1D RFO       ACCESS:    1908343  HIT:    1766160  MISS:     142183
cpu4_L1D PREFETCH  ACCESS:          0  HIT:          0  MISS:          0
cpu4_L1D WRITEBACK ACCESS:          0  HIT:          0  MISS:          0
cpu4_L2C TOTAL     ACCESS:    2108610  HIT:    1982782  MISS:     125828
cpu4_L2C LOAD      ACCESS:    1813214  HIT:    1703442  MISS:     109772
cpu4_L2C RFO       ACCESS:     142073  HIT:     126446  MISS:      15627
cpu4_L2C PREFETCH  ACCESS:          0  HIT:          0  MISS:          0
cpu4_L2C WRITEBACK ACCESS:     152326  HIT:     152309  MISS:         17
cpu15_LLC TOTAL     ACCESS:       8594  HIT:        221  MISS:       8373
cpu15_LLC LOAD      ACCESS:       6733  HIT:         53  MISS:       6680
cpu15_LLC RFO       ACCESS:        898  HIT:         20  MISS:        878
cpu15_LLC PREFETCH  ACCESS:          0  HIT:          0  MISS:          0
cpu15_LLC WRITEBACK ACCESS:        937  HIT:        148  MISS:        789
cpu14_LLC TOTAL     ACCESS:       8833  HIT:        371  MISS:       8462
cpu14_LLC LOAD      ACCESS:       6983  HIT:        205  MISS:       6778
cpu14_LLC RFO       ACCESS:        895  HIT:         18  MISS:        877
cpu14_LLC PREFETCH  ACCESS:          0  HIT:          0  MISS:          0
cpu14_LLC WRITEBACK ACCESS:        938  HIT:        148  MISS:        790
cpu13_LLC TOTAL     ACCESS:       8895  HIT:        367  MISS:       8528
cpu13_LLC LOAD      ACCESS:       6997  HIT:        192  MISS:       6805
cpu13_LLC RFO       ACCESS:        899  HIT:         20  MISS:        879
cpu13_LLC PREFETCH  ACCESS:          0  HIT:          0  MISS:          0
cpu13_LLC WRITEBACK ACCESS:        956  HIT:        155  MISS:        801
cpu12_LLC TOTAL     ACCESS:       8583  HIT:        233  MISS:       8350
cpu12_LLC LOAD      ACCESS:       6696  HIT:         55  MISS:       6641
cpu12_LLC RFO       ACCESS:        893  HIT:         14  MISS:        879
cpu12_LLC PREFETCH  ACCESS:          0  HIT:          0  MISS:          0
cpu12_LLC WRITEBACK ACCESS:        964  HIT:        164  MISS:        800
cpu11_LLC TOTAL     ACCESS:       8735  HIT:        199  MISS:       8536
cpu11_LLC LOAD      ACCESS:       6891  HIT:         46  MISS:       6845
cpu11_LLC RFO       ACCESS:        888  HIT:         11  MISS:        877
cpu11_LLC PREFETCH  ACCESS:          0  HIT:          0  MISS:          0
cpu11_LLC WRITEBACK ACCESS:        937  HIT:        142  MISS:        795
cpu10_LLC TOTAL     ACCESS:       8938  HIT:        273  MISS:       8665
cpu10_LLC LOAD      ACCESS:       7036  HIT:         84  MISS:       6952
cpu10_LLC RFO       ACCESS:        922  HIT:         20  MISS:        902
cpu10_LLC PREFETCH  ACCESS:          0  HIT:          0  MISS:          0
cpu10_LLC WRITEBACK ACCESS:        961  HIT:        169  MISS:        792
cpu9_LLC TOTAL     ACCESS:       8776  HIT:        259  MISS:       8517
cpu9_LLC LOAD      ACCESS:       6871  HIT:         89  MISS:       6782
cpu9_LLC RFO       ACCESS:        923  HIT:         21  MISS:        902
cpu9_LLC PREFETCH  ACCESS:          0  HIT:          0  MISS:          0
cpu9_LLC WRITEBACK ACCESS:        941  HIT:        148  MISS:        793
cpu8_LLC TOTAL     ACCESS:       8758  HIT:        224  MISS:       8534
cpu8_LLC LOAD      ACCESS:       6867  HIT:         56  MISS:       6811
cpu8_LLC RFO       ACCESS:        920  HIT:         17  MISS:        903
cpu8_LLC PREFETCH  ACCESS:          0  HIT:          0  MISS:          0
cpu8_LLC WRITEBACK ACCESS:        947  HIT:        151  MISS:        796
cpu7_LLC TOTAL     ACCESS:       9050  HIT:        373  MISS:       8677
cpu7_LLC LOAD      ACCESS:       7159  HIT:        194  MISS:       6965
cpu7_LLC RFO       ACCESS:        923  HIT:         21  MISS:        902
cpu7_LLC PREFETCH  ACCESS:          0  HIT:          0  MISS:          0
cpu7_LLC WRITEBACK ACCESS:        950  HIT:        158  MISS:        792
cpu6_LLC TOTAL     ACCESS:       8867  HIT:        350  MISS:       8517
cpu6_LLC LOAD      ACCESS:       6959  HIT:        162  MISS:       6797
cpu6_LLC RFO       ACCESS:        915  HIT:         14  MISS:        901
cpu6_LLC PREFETCH  ACCESS:          0  HIT:          0  MISS:          0
cpu6_LLC WRITEBACK ACCESS:        970  HIT:        174  MISS:        796
cpu5_LLC TOTAL     ACCESS:       8862  HIT:        332  MISS:       8530
cpu5_LLC LOAD      ACCESS:       6964  HIT:        155  MISS:       6809
cpu5_LLC RFO       ACCESS:        912  HIT:         10  MISS:        902
cpu5_LLC PREFETCH  ACCESS:          0  HIT:          0  MISS:          0
cpu5_LLC WRITEBACK ACCESS:        953  HIT:        167  MISS:        786
cpu4_LLC TOTAL     ACCESS:       8542  HIT:        198  MISS:       8344
cpu4_LLC LOAD      ACCESS:       6713  HIT:         59  MISS:       6654
cpu4_LLC RFO       ACCESS:        894  HIT:         16  MISS:        878
cpu4_LLC PREFETCH  ACCESS:          0  HIT:          0  MISS:          0
cpu4_LLC WRITEBACK ACCESS:        917  HIT:        123  MISS:        794
cpu3_LLC TOTAL     ACCESS:       8641  HIT:        216  MISS:       8425
cpu3_LLC LOAD      ACCESS:       6764  HIT:         57  MISS:       6707
cpu3_LLC RFO       ACCESS:        892  HIT:         13  MISS:        879
cpu3_LLC PREFETCH  ACCESS:          0  HIT:          0  MISS:          0
cpu3_LLC WRITEBACK ACCESS:        958  HIT:        146  MISS:        812
cpu2_LLC TOTAL     ACCESS:       8649  HIT:        223  MISS:       8426
cpu2_LLC LOAD      ACCESS:       6773  HIT:         54  MISS:       6719
cpu2_LLC RFO       ACCESS:        896  HIT:         18  MISS:        878
cpu2_LLC PREFETCH  ACCESS:          0  HIT:          0  MISS:          0
cpu2_LLC WRITEBACK ACCESS:        955  HIT:        151  MISS:        804
cpu1_LLC TOTAL     ACCESS:       8601  HIT:        263  MISS:       8338
cpu1_LLC LOAD      ACCESS:       6716  HIT:         67  MISS:       6649
cpu1_LLC RFO       ACCESS:        902  HIT:         26  MISS:        876
cpu1_LLC PREFETCH  ACCESS:          0  HIT:          0  MISS:          0
cpu1_LLC WRITEBACK ACCESS:        966  HIT:        170  MISS:        796
cpu0_LLC TOTAL     ACCESS:       8490  HIT:        164  MISS:       8326
cpu0_LLC LOAD      ACCESS:       6650  HIT:         38  MISS:       6612
cpu0_LLC RFO       ACCESS:        895  HIT:         18  MISS:        877
cpu0_LLC PREFETCH  ACCESS:          0  HIT:          0  MISS:          0
cpu0_LLC WRITEBACK ACCESS:        913  HIT:        108  MISS:        805

CPU 5 cumulative IPC: 0.00804014 instructions: 1000000 cycles: 124375877
cpu5_DTLB TOTAL     ACCESS:     196919  HIT:     196579  MISS:        340
cpu5_DTLB LOAD      ACCESS:     166522  HIT:     166182  MISS:        340
cpu5_DTLB RFO       ACCESS:      30397  HIT:      30397  MISS:          0
cpu5_DTLB PREFETCH  ACCESS:          0  HIT:          0  MISS:          0
cpu5_DTLB WRITEBACK ACCESS:          0  HIT:          0  MISS:          0
cpu5_ITLB TOTAL     ACCESS:     120708  HIT:     120708  MISS:          0
cpu5_ITLB LOAD      ACCESS:     120708  HIT:     120708  MISS:          0
cpu5_ITLB RFO       ACCESS:          0  HIT:          0  MISS:          0
cpu5_ITLB PREFETCH  ACCESS:          0  HIT:          0  MISS:          0
cpu5_ITLB WRITEBACK ACCESS:          0  HIT:          0  MISS:          0
cpu5_STLB TOTAL     ACCESS:        340  HIT:         21  MISS:        319
cpu5_STLB LOAD      ACCESS:        340  HIT:         21  MISS:        319
cpu5_STLB RFO       ACCESS:          0  HIT:          0  MISS:          0
cpu5_STLB PREFETCH  ACCESS:          0  HIT:          0  MISS:          0
cpu5_STLB WRITEBACK ACCESS:          0  HIT:          0  MISS:          0
cpu5_L1D TOTAL     ACCESS:     220722  HIT:     196578  MISS:      24144
cpu5_L1D LOAD      ACCESS:     134172  HIT:     110066  MISS:      24106
cpu5_L1D RFO       ACCESS:      86232  HIT:      86226  MISS:          6
cpu5_L1D PREFETCH  ACCESS:          0  HIT:          0  MISS:          0
cpu5_L1D WRITEBACK ACCESS:          0  HIT:          0  MISS:          0
cpu5_L2C TOTAL     ACCESS:      24206  HIT:       6379  MISS:      17827
cpu5_L2C LOAD      ACCESS:      24106  HIT:       6292  MISS:      17814
cpu5_L2C RFO       ACCESS:          6  HIT:          0  MISS:          6
cpu5_L2C PREFETCH  ACCESS:          0  HIT:          0  MISS:          0
cpu5_L2C WRITEBACK ACCESS:         62  HIT:         62  MISS:          0
cpu15_LLC TOTAL     ACCESS:       1113  HIT:          0  MISS:       1113
cpu15_LLC LOAD      ACCESS:       1111  HIT:          0  MISS:       1111
cpu15_LLC RFO       ACCESS:          0  HIT:          0  MISS:          0
cpu15_LLC PREFETCH  ACCESS:          0  HIT:          0  MISS:          0
cpu15_LLC WRITEBACK ACCESS:          1  HIT:          0  MISS:          1
cpu14_LLC TOTAL     ACCESS:       1116  HIT:          0  MISS:       1116
cpu14_LLC LOAD      ACCESS:       1113  HIT:          0  MISS:       1113
cpu14_LLC RFO       ACCESS:          0  HIT:          0  MISS:          0
cpu14_LLC PREFETCH  ACCESS:          0  HIT:          0  MISS:          0
cpu14_LLC WRITEBACK ACCESS:          3  HIT:          0  MISS:          3
cpu13_LLC TOTAL     ACCESS:       1116  HIT:          0  MISS:       1116
cpu13_LLC LOAD      ACCESS:       1113  HIT:          0  MISS:       1113
cpu13_LLC RFO       ACCESS:          1  HIT:          0  MISS:          1
cpu13_LLC PREFETCH  ACCESS:          0  HIT:          0  MISS:          0
cpu13_LLC WRITEBACK ACCESS:          2  HIT:          0  MISS:          2
cpu12_LLC TOTAL     ACCESS:       1115  HIT:          0  MISS:       1115
cpu12_LLC LOAD      ACCESS:       1110  HIT:          0  MISS:       1110
cpu12_LLC RFO       ACCESS:          0  HIT:          0  MISS:          0
cpu12_LLC PREFETCH  ACCESS:          0  HIT:          0  MISS:          0
cpu12_LLC WRITEBACK ACCESS:          2  HIT:          0  MISS:          2
cpu11_LLC TOTAL     ACCESS:       1115  HIT:          0  MISS:       1115
cpu11_LLC LOAD      ACCESS:       1113  HIT:          0  MISS:       1113
cpu11_LLC RFO       ACCESS:          0  HIT:          0  MISS:          0
cpu11_LLC PREFETCH  ACCESS:          0  HIT:          0  MISS:          0
cpu11_LLC WRITEBACK ACCESS:          2  HIT:          0  MISS:          2
cpu10_LLC TOTAL     ACCESS:       1116  HIT:          0  MISS:       1116
cpu10_LLC LOAD      ACCESS:       1114  HIT:          0  MISS:       1114
cpu10_LLC RFO       ACCESS:          0  HIT:          0  MISS:          0
cpu10_LLC PREFETCH  ACCESS:          0  HIT:          0  MISS:          0
cpu10_LLC WRITEBACK ACCESS:          2  HIT:          0  MISS:          2
cpu9_LLC TOTAL     ACCESS:       1115  HIT:          0  MISS:       1115
cpu9_LLC LOAD      ACCESS:       1112  HIT:          0  MISS:       1112
cpu9_LLC RFO       ACCESS:          1  HIT:          0  MISS:          1
cpu9_LLC PREFETCH  ACCESS:          0  HIT:          0  MISS:          0
cpu9_LLC WRITEBACK ACCESS:          2  HIT:          0  MISS:          2
cpu8_LLC TOTAL     ACCESS:       1123  HIT:          0  MISS:       1123
cpu8_LLC LOAD      ACCESS:       1119  HIT:          0  MISS:       1119
cpu8_LLC RFO       ACCESS:          0  HIT:          0  MISS:          0
cpu8_LLC PREFETCH  ACCESS:          0  HIT:          0  MISS:          0
cpu8_LLC WRITEBACK ACCESS:          4  HIT:          0  MISS:          4
cpu7_LLC TOTAL     ACCESS:       1110  HIT:          0  MISS:       1110
cpu7_LLC LOAD      ACCESS:       1108  HIT:          0  MISS:       1108
cpu7_LLC RFO       ACCESS:          0  HIT:          0  MISS:          0
cpu7_LLC PREFETCH  ACCESS:          0  HIT:          0  MISS:          0
cpu7_LLC WRITEBACK ACCESS:          2  HIT:          0  MISS:          2
cpu6_LLC TOTAL     ACCESS:       1122  HIT:          0  MISS:       1122
cpu6_LLC LOAD      ACCESS:       1119  HIT:          0  MISS:       1119
cpu6_LLC RFO       ACCESS:          0  HIT:          0  MISS:          0
cpu6_LLC PREFETCH  ACCESS:          0  HIT:          0  MISS:          0
cpu6_LLC WRITEBACK ACCESS:          3  HIT:          0  MISS:          3
cpu5_LLC TOTAL     ACCESS:       1117  HIT:          0  MISS:       1117
cpu5_LLC LOAD      ACCESS:       1114  HIT:          0  MISS:       1114
cpu5_LLC RFO       ACCESS:          1  HIT:          0  MISS:          1
cpu5_LLC PREFETCH  ACCESS:          0  HIT:          0  MISS:          0
cpu5_LLC WRITEBACK ACCESS:          2  HIT:          0  MISS:          2
cpu4_LLC TOTAL     ACCESS:       1114  HIT:          0  MISS:       1114
cpu4_LLC LOAD      ACCESS:       1111  HIT:          0  MISS:       1111
cpu4_LLC RFO       ACCESS:          1  HIT:          0  MISS:          1
cpu4_LLC PREFETCH  ACCESS:          0  HIT:          0  MISS:          0
cpu4_LLC WRITEBACK ACCESS:          1  HIT:          0  MISS:          1
cpu3_LLC TOTAL     ACCESS:       1112  HIT:          0  MISS:       1112
cpu3_LLC LOAD      ACCESS:       1110  HIT:          0  MISS:       1110
cpu3_LLC RFO       ACCESS:          0  HIT:          0  MISS:          0
cpu3_LLC PREFETCH  ACCESS:          0  HIT:          0  MISS:          0
cpu3_LLC WRITEBACK ACCESS:          1  HIT:          0  MISS:          1
cpu2_LLC TOTAL     ACCESS:       1115  HIT:          0  MISS:       1115
cpu2_LLC LOAD      ACCESS:       1112  HIT:          0  MISS:       1112
cpu2_LLC RFO       ACCESS:          1  HIT:          0  MISS:          1
cpu2_LLC PREFETCH  ACCESS:          0  HIT:          0  MISS:          0
cpu2_LLC WRITEBACK ACCESS:          1  HIT:          0  MISS:          1
cpu1_LLC TOTAL     ACCESS:       1118  HIT:          0  MISS:       1118
cpu1_LLC LOAD      ACCESS:       1117  HIT:          0  MISS:       1117
cpu1_LLC RFO       ACCESS:          0  HIT:          0  MISS:          0
cpu1_LLC PREFETCH  ACCESS:          0  HIT:          0  MISS:          0
cpu1_LLC WRITEBACK ACCESS:          1  HIT:          0  MISS:          1
cpu0_LLC TOTAL     ACCESS:       1121  HIT:          0  MISS:       1121
cpu0_LLC LOAD      ACCESS:       1118  HIT:          0  MISS:       1118
cpu0_LLC RFO       ACCESS:          1  HIT:          0  MISS:          1
cpu0_LLC PREFETCH  ACCESS:          0  HIT:          0  MISS:          0
cpu0_LLC WRITEBACK ACCESS:          2  HIT:          0  MISS:          2

CPU 6 cumulative IPC: 0.0431686 instructions: 5369128 cycles: 124375877
cpu6_DTLB TOTAL     ACCESS:    1010959  HIT:    1008683  MISS:       2276
cpu6_DTLB LOAD      ACCESS:     795348  HIT:     793072  MISS:       2276
cpu6_DTLB RFO       ACCESS:     215611  HIT:     215611  MISS:          0
cpu6_DTLB PREFETCH  ACCESS:          0  HIT:          0  MISS:          0
cpu6_DTLB WRITEBACK ACCESS:          0  HIT:          0  MISS:          0
cpu6_ITLB TOTAL     ACCESS:     486952  HIT:     486952  MISS:          0
cpu6_ITLB LOAD      ACCESS:     486952  HIT:     486952  MISS:          0
cpu6_ITLB RFO       ACCESS:          0  HIT:          0  MISS:          0
cpu6_ITLB PREFETCH  ACCESS:          0  HIT:          0  MISS:          0
cpu6_ITLB WRITEBACK ACCESS:          0  HIT:          0  MISS:          0
cpu6_STLB TOTAL     ACCESS:       2276  HIT:          4  MISS:       2272
cpu6_STLB LOAD      ACCESS:       2276  HIT:          4  MISS:       2272
cpu6_STLB RFO       ACCESS:          0  HIT:          0  MISS:          0
cpu6_STLB PREFETCH  ACCESS:          0  HIT:          0  MISS:          0
cpu6_STLB WRITEBACK ACCESS:          0  HIT:          0  MISS:          0
cpu6_L1D TOTAL     ACCESS:     657095  HIT:     511515  MISS:     145580
cpu6_L1D LOAD      ACCESS:     302167  HIT:     156587  MISS:     145580
cpu6_L1D RFO       ACCESS:     352656  HIT:     352656  MISS:          0
cpu6_L1D PREFETCH  ACCESS:          0  HIT:          0  MISS:          0
cpu6_L1D WRITEBACK ACCESS:          0  HIT:          0  MISS:          0
cpu6_L2C TOTAL     ACCESS:     218370  HIT:      72790  MISS:     145580
cpu6_L2C LOAD      ACCESS:     145580  HIT:          0  MISS:     145580
cpu6_L2C RFO       ACCESS:          0  HIT:          0  MISS:          0
cpu6_L2C PREFETCH  ACCESS:          0  HIT:          0  MISS:          0
cpu6_L2C WRITEBACK ACCESS:      72790  HIT:      72790  MISS:          0
cpu15_LLC TOTAL     ACCESS:      13646  HIT:         23  MISS:      13623
cpu15_LLC LOAD      ACCESS:       9096  HIT:          0  MISS:       9096
cpu15_LLC RFO       ACCESS:          0  HIT:          0  MISS:          0
cpu15_LLC PREFETCH  ACCESS:          0  HIT:          0  MISS:          0
cpu15_LLC WRITEBACK ACCESS:       4550  HIT:         23  MISS:       4527
cpu14_LLC TOTAL     ACCESS:      13648  HIT:         15  MISS:      13633
cpu14_LLC LOAD      ACCESS:       9096  HIT:          0  MISS:       9096
cpu14_LLC RFO       ACCESS:          0  HIT:          0  MISS:          0
cpu14_LLC PREFETCH  ACCESS:          0  HIT:          0  MISS:          0
cpu14_LLC WRITEBACK ACCESS:       4552  HIT:         15  MISS:       4537
cpu13_LLC TOTAL     ACCESS:      13647  HIT:         24  MISS:      13623
cpu13_LLC LOAD      ACCESS:       9096  HIT:          0  MISS:       9096
cpu13_LLC RFO       ACCESS:          0  HIT:          0  MISS:          0
cpu13_LLC PREFETCH  ACCESS:          0  HIT:          0  MISS:          0
cpu13_LLC WRITEBACK ACCESS:       4551  HIT:         24  MISS:       4527
cpu12_LLC TOTAL     ACCESS:      13647  HIT:         18  MISS:      13629
cpu12_LLC LOAD      ACCESS:       9096  HIT:          0  MISS:       9096
cpu12_LLC RFO       ACCESS:          0  HIT:          0  MISS:          0
cpu12_LLC PREFETCH  ACCESS:          0  HIT:          0  MISS:          0
cpu12_LLC WRITEBACK ACCESS:       4551  HIT:         18  MISS:       4533
cpu11_LLC TOTAL     ACCESS:      13653  HIT:         24  MISS:      13629
cpu11_LLC LOAD      ACCESS:       9100  HIT:          0  MISS:       9100
cpu11_LLC RFO       ACCESS:          0  HIT:          0  MISS:          0
cpu11_LLC PREFETCH  ACCESS:          0  HIT:          0  MISS:          0
cpu11_LLC WRITEBACK ACCESS:       4553  HIT:         24  MISS:       4529
cpu10_LLC TOTAL     ACCESS:      13654  HIT:         29  MISS:      13625
cpu10_LLC LOAD      ACCESS:       9100  HIT:          0  MISS:       9100
cpu10_LLC RFO       ACCESS:          0  HIT:          0  MISS:          0
cpu10_LLC PREFETCH  ACCESS:          0  HIT:          0  MISS:          0
cpu10_LLC WRITEBACK ACCESS:       4554  HIT:         29  MISS:       4525
cpu9_LLC TOTAL     ACCESS:      13655  HIT:         26  MISS:      13629
cpu9_LLC LOAD      ACCESS:       9104  HIT:          0  MISS:       9104
cpu9_LLC RFO       ACCESS:          0  HIT:          0  MISS:          0
cpu9_LLC PREFETCH  ACCESS:          0  HIT:          0  MISS:          0
cpu9_LLC WRITEBACK ACCESS:       4551  HIT:         26  MISS:       4525
cpu8_LLC TOTAL     ACCESS:      13650  HIT:         19  MISS:      13631
cpu8_LLC LOAD      ACCESS:       9100  HIT:          0  MISS:       9100
cpu8_LLC RFO       ACCESS:          0  HIT:          0  MISS:          0
cpu8_LLC PREFETCH  ACCESS:          0  HIT:          0  MISS:          0
cpu8_LLC WRITEBACK ACCESS:       4550  HIT:         19  MISS:       4531
cpu7_LLC TOTAL     ACCESS:      13657  HIT:         19  MISS:      13638
cpu7_LLC LOAD      ACCESS:       9104  HIT:          0  MISS:       9104
cpu7_LLC RFO       ACCESS:          0  HIT:          0  MISS:          0
cpu7_LLC PREFETCH  ACCESS:          0  HIT:          0  MISS:          0
cpu7_LLC WRITEBACK ACCESS:       4553  HIT:         19  MISS:       4534
cpu6_LLC TOTAL     ACCESS:      13651  HIT:         25  MISS:      13626
cpu6_LLC LOAD      ACCESS:       9100  HIT:          0  MISS:       9100
cpu6_LLC RFO       ACCESS:          0  HIT:          0  MISS:          0
cpu6_LLC PREFETCH  ACCESS:          0  HIT:          0  MISS:          0
cpu6_LLC WRITEBACK ACCESS:       4551  HIT:         25  MISS:       4526
cpu5_LLC TOTAL     ACCESS:      13651  HIT:         25  MISS:      13626
cpu5_LLC LOAD      ACCESS:       9100  HIT:          0  MISS:       9100
cpu5_LLC RFO       ACCESS:          0  HIT:          0  MISS:          0
cpu5_LLC PREFETCH  ACCESS:          0  HIT:          0  MISS:          0
cpu5_LLC WRITEBACK ACCESS:       4551  HIT:         25  MISS:       4526
cpu4_LLC TOTAL     ACCESS:      13653  HIT:         19  MISS:      13634
cpu4_LLC LOAD      ACCESS:       9100  HIT:          0  MISS:       9100
cpu4_LLC RFO       ACCESS:          0  HIT:          0  MISS:          0
cpu4_LLC PREFETCH  ACCESS:          0  HIT:          0  MISS:          0
cpu4_LLC WRITEBACK ACCESS:       4553  HIT:         19  MISS:       4534
cpu3_LLC TOTAL     ACCESS:      13651  HIT:         24  MISS:      13627
cpu3_LLC LOAD      ACCESS:       9100  HIT:          0  MISS:       9100
cpu3_LLC RFO       ACCESS:          0  HIT:          0  MISS:          0
cpu3_LLC PREFETCH  ACCESS:          0  HIT:          0  MISS:          0
cpu3_LLC WRITEBACK ACCESS:       4551  HIT:         24  MISS:       4527
cpu2_LLC TOTAL     ACCESS:      13647  HIT:         22  MISS:      13625
cpu2_LLC LOAD      ACCESS:       9096  HIT:          0  MISS:       9096
cpu2_LLC RFO       ACCESS:          0  HIT:          0  MISS:          0
cpu2_LLC PREFETCH  ACCESS:          0  HIT:          0  MISS:          0
cpu2_LLC WRITEBACK ACCESS:       4551  HIT:         22  MISS:       4529
cpu1_LLC TOTAL     ACCESS:      13645  HIT:         23  MISS:      13622
cpu1_LLC LOAD      ACCESS:       9096  HIT:          0  MISS:       9096
cpu1_LLC RFO       ACCESS:          0  HIT:          0  MISS:          0
cpu1_LLC PREFETCH  ACCESS:          0  HIT:          0  MISS:          0
cpu1_LLC WRITEBACK ACCESS:       4549  HIT:         23  MISS:       4526
cpu0_LLC TOTAL     ACCESS:      13644  HIT:         25  MISS:      13619
cpu0_LLC LOAD      ACCESS:       9096  HIT:          0  MISS:       9096
cpu0_LLC RFO       ACCESS:          0  HIT:          0  MISS:          0
cpu0_LLC PREFETCH  ACCESS:          0  HIT:          0  MISS:          0
cpu0_LLC WRITEBACK ACCESS:       4548  HIT:         25  MISS:       4523

CPU 7 cumulative IPC: 0.945181 instructions: 117557775 cycles: 124375877
cpu7_DTLB TOTAL     ACCESS:   17880946  HIT:   17875514  MISS:       5432
cpu7_DTLB LOAD      ACCESS:   15960210  HIT:   15955888  MISS:       4322
cpu7_DTLB RFO       ACCESS:    1920736  HIT:    1919626  MISS:       1110
cpu7_DTLB PREFETCH  ACCESS:          0  HIT:          0  MISS:          0
cpu7_DTLB WRITEBACK ACCESS:          0  HIT:          0  MISS:          0
cpu7_ITLB TOTAL     ACCESS:    9402287  HIT:    9402276  MISS:         11
cpu7_ITLB LOAD      ACCESS:    9402287  HIT:    9402276  MISS:         11
cpu7_ITLB RFO       ACCESS:          0  HIT:          0  MISS:          0
cpu7_ITLB PREFETCH  ACCESS:          0  HIT:          0  MISS:          0
cpu7_ITLB WRITEBACK ACCESS:          0  HIT:          0  MISS:          0
cpu7_L1I TOTAL     ACCESS:    4912398  HIT:    4911428  MISS:        970
cpu7_L1I LOAD      ACCESS:    4912398  HIT:    4911428  MISS:        970
cpu7_L1I RFO       ACCESS:          0  HIT:          0  MISS:          0
cpu7_L1I PREFETCH  ACCESS:          0  HIT:          0  MISS:          0
cpu7_L1I WRITEBACK ACCESS:          0  HIT:          0  MISS:          0
cpu7_STLB TOTAL     ACCESS:       5443  HIT:       5261  MISS:        182
cpu7_STLB LOAD      ACCESS:       4333  HIT:       4203  MISS:        130
cpu7_STLB RFO       ACCESS:       1110  HIT:       1058  MISS:         52
cpu7_STLB PREFETCH  ACCESS:          0  HIT:          0  MISS:          0
cpu7_STLB WRITEBACK ACCESS:          0  HIT:          0  MISS:          0
cpu7_L1D TOTAL     ACCESS:   19602447  HIT:   19599001  MISS:       3446
cpu7_L1D LOAD      ACCESS:   15086584  HIT:   15085214  MISS:       1370
cpu7_L1D RFO       ACCESS:    4515685  HIT:    4513622  MISS:       2063
cpu7_L1D PREFETCH  ACCESS:          0  HIT:          0  MISS:          0
cpu7_L1D WRITEBACK ACCESS:          0  HIT:          0  MISS:          0
cpu7_L2C TOTAL     ACCESS:       6381  HIT:       2739  MISS:       3642
cpu7_L2C LOAD      ACCESS:       2340  HIT:        743  MISS:       1597
cpu7_L2C RFO       ACCESS:       2063  HIT:         26  MISS:       2037
cpu7_L2C PREFETCH  ACCESS:          0  HIT:          0  MISS:          0
cpu7_L2C WRITEBACK ACCESS:       1965  HIT:       1965  MISS:          0
cpu15_LLC TOTAL     ACCESS:        228  HIT:          0  MISS:        228
cpu15_LLC LOAD      ACCESS:         99  HIT:          0  MISS:         99
cpu15_LLC RFO       ACCESS:        129  HIT:          0  MISS:        129
cpu15_LLC PREFETCH  ACCESS:          0  HIT:          0  MISS:          0
cpu15_LLC WRITEBACK ACCESS:          0  HIT:          0  MISS:          0
cpu14_LLC TOTAL     ACCESS:        228  HIT:          0  MISS:        228
cpu14_LLC LOAD      ACCESS:         99  HIT:          0  MISS:         99
cpu14_LLC RFO       ACCESS:        128  HIT:          0  MISS:        128
cpu14_LLC PREFETCH  ACCESS:          0  HIT:          0  MISS:          0
cpu14_LLC WRITEBACK ACCESS:          1  HIT:          0  MISS:          1
cpu13_LLC TOTAL     ACCESS:        224  HIT:          0  MISS:        224
cpu13_LLC LOAD      ACCESS:         99  HIT:          0  MISS:         99
cpu13_LLC RFO       ACCESS:        125  HIT:          0  MISS:        125
cpu13_LLC PREFETCH  ACCESS:          0  HIT:          0  MISS:          0
cpu13_LLC WRITEBACK ACCESS:          0  HIT:          0  MISS:          0
cpu12_LLC TOTAL     ACCESS:        221  HIT:          0  MISS:        221
cpu12_LLC LOAD      ACCESS:         99  HIT:          0  MISS:         99
cpu12_LLC RFO       ACCESS:        121  HIT:          0  MISS:        121
cpu12_LLC PREFETCH  ACCESS:          0  HIT:          0  MISS:          0
cpu12_LLC WRITEBACK ACCESS:          1  HIT:          0  MISS:          1
cpu11_LLC TOTAL     ACCESS:        227  HIT:          0  MISS:        227
cpu11_LLC LOAD      ACCESS:        108  HIT:          0  MISS:        108
cpu11_LLC RFO       ACCESS:        116  HIT:          0  MISS:        116
cpu11_LLC PREFETCH  ACCESS:          0  HIT:          0  MISS:          0
cpu11_LLC WRITEBACK ACCESS:          1  HIT:          0  MISS:          1
cpu10_LLC TOTAL     ACCESS:        226  HIT:          0  MISS:        226
cpu10_LLC LOAD      ACCESS:        102  HIT:          0  MISS:        102
cpu10_LLC RFO       ACCESS:        124  HIT:          0  MISS:        124
cpu10_LLC PREFETCH  ACCESS:          0  HIT:          0  MISS:          0
cpu10_LLC WRITEBACK ACCESS:          0  HIT:          0  MISS:          0
cpu9_LLC TOTAL     ACCESS:        227  HIT:          0  MISS:        227
cpu9_LLC LOAD      ACCESS:         98  HIT:          0  MISS:         98
cpu9_LLC RFO       ACCESS:        128  HIT:          0  MISS:        128
cpu9_LLC PREFETCH  ACCESS:          0  HIT:          0  MISS:          0
cpu9_LLC WRITEBACK ACCESS:          0  HIT:          0  MISS:          0
cpu8_LLC TOTAL     ACCESS:        228  HIT:          0  MISS:        228
cpu8_LLC LOAD      ACCESS:        100  HIT:          0  MISS:        100
cpu8_LLC RFO       ACCESS:        127  HIT:          0  MISS:        127
cpu8_LLC PREFETCH  ACCESS:          0  HIT:          0  MISS:          0
cpu8_LLC WRITEBACK ACCESS:          0  HIT:          0  MISS:          0
cpu7_LLC TOTAL     ACCESS:        222  HIT:          0  MISS:        222
cpu7_LLC LOAD      ACCESS:         98  HIT:          0  MISS:         98
cpu7_LLC RFO       ACCESS:        124  HIT:          0  MISS:        124
cpu7_LLC PREFETCH  ACCESS:          0  HIT:          0  MISS:          0
cpu7_LLC WRITEBACK ACCESS:          0  HIT:          0  MISS:          0
cpu6_LLC TOTAL     ACCESS:        230  HIT:          0  MISS:        230
cpu6_LLC LOAD      ACCESS:        106  HIT:          0  MISS:        106
cpu6_LLC RFO       ACCESS:        123  HIT:          0  MISS:        123
cpu6_LLC PREFETCH  ACCESS:          0  HIT:          0  MISS:          0
cpu6_LLC WRITEBACK ACCESS:          0  HIT:          0  MISS:          0
cpu5_LLC TOTAL     ACCESS:        233  HIT:          0  MISS:        233
cpu5_LLC LOAD      ACCESS:        103  HIT:          0  MISS:        103
cpu5_LLC RFO       ACCESS:        128  HIT:          0  MISS:        128
cpu5_LLC PREFETCH  ACCESS:          0  HIT:          0  MISS:          0
cpu5_LLC WRITEBACK ACCESS:          0  HIT:          0  MISS:          0
cpu4_LLC TOTAL     ACCESS:        235  HIT:          0  MISS:        235
cpu4_LLC LOAD      ACCESS:        101  HIT:          0  MISS:        101
cpu4_LLC RFO       ACCESS:        134  HIT:          0  MISS:        134
cpu4_LLC PREFETCH  ACCESS:          0  HIT:          0  MISS:          0
cpu4_LLC WRITEBACK ACCESS:          0  HIT:          0  MISS:          0
cpu3_LLC TOTAL     ACCESS:        232  HIT:          0  MISS:        232
cpu3_LLC LOAD      ACCESS:         98  HIT:          0  MISS:         98
cpu3_LLC RFO       ACCESS:        133  HIT:          0  MISS:        133
cpu3_LLC PREFETCH  ACCESS:          0  HIT:          0  MISS:          0
cpu3_LLC WRITEBACK ACCESS:          0  HIT:          0  MISS:          0
cpu2_LLC TOTAL     ACCESS:        229  HIT:          0  MISS:        229
cpu2_LLC LOAD      ACCESS:         95  HIT:          0  MISS:         95
cpu2_LLC RFO       ACCESS:        134  HIT:          0  MISS:        134
cpu2_LLC PREFETCH  ACCESS:          0  HIT:          0  MISS:          0
cpu2_LLC WRITEBACK ACCESS:          0  HIT:          0  MISS:          0
cpu1_LLC TOTAL     ACCESS:        229  HIT:          0  MISS:        229
cpu1_LLC LOAD      ACCESS:         95  HIT:          0  MISS:         95
cpu1_LLC RFO       ACCESS:        134  HIT:          0  MISS:        134
cpu1_LLC PREFETCH  ACCESS:          0  HIT:          0  MISS:          0
cpu1_LLC WRITEBACK ACCESS:          0  HIT:          0  MISS:          0
cpu0_LLC TOTAL     ACCESS:        226  HIT:          0  MISS:        226
cpu0_LLC LOAD      ACCESS:         97  HIT:          0  MISS:         97
cpu0_LLC RFO       ACCESS:        129  HIT:          0  MISS:        129
cpu0_LLC PREFETCH  ACCESS:          0  HIT:          0  MISS:          0
cpu0_LLC WRITEBACK ACCESS:          0  HIT:          0  MISS:          0

CPU 8 cumulative IPC: 0.541211 instructions: 67313650 cycles: 124375877
cpu8_DTLB TOTAL     ACCESS:   12543336  HIT:   12492283  MISS:      51053
cpu8_DTLB LOAD      ACCESS:    7012654  HIT:    6966518  MISS:      46136
cpu8_DTLB RFO       ACCESS:    5530682  HIT:    5525765  MISS:       4917
cpu8_DTLB PREFETCH  ACCESS:          0  HIT:          0  MISS:          0
cpu8_DTLB WRITEBACK ACCESS:          0  HIT:          0  MISS:          0
cpu8_ITLB TOTAL     ACCESS:    5535656  HIT:    5534174  MISS:       1482
cpu8_ITLB LOAD      ACCESS:    5535656  HIT:    5534174  MISS:       1482
cpu8_ITLB RFO       ACCESS:          0  HIT:          0  MISS:          0
cpu8_ITLB PREFETCH  ACCESS:          0  HIT:          0  MISS:          0
cpu8_ITLB WRITEBACK ACCESS:          0  HIT:          0  MISS:          0
cpu8_L1I TOTAL     ACCESS:    2592164  HIT:    2566247  MISS:      25917
cpu8_L1I LOAD      ACCESS:    2592164  HIT:    2566247  MISS:      25917
cpu8_L1I RFO       ACCESS:          0  HIT:          0  MISS:          0
cpu8_L1I PREFETCH  ACCESS:          0  HIT:          0  MISS:          0
cpu8_L1I WRITEBACK ACCESS:          0  HIT:          0  MISS:          0
cpu8_STLB TOTAL     ACCESS:      52535  HIT:      50893  MISS:       1642
cpu8_STLB LOAD      ACCESS:      47618  HIT:      46170  MISS:       1448
cpu8_STLB RFO       ACCESS:       4917  HIT:       4723  MISS:        194
cpu8_STLB PREFETCH  ACCESS:          0  HIT:          0  MISS:          0
cpu8_STLB WRITEBACK ACCESS:          0  HIT:          0  MISS:          0
cpu8_L1D TOTAL     ACCESS:   21747087  HIT:   21727448  MISS:      19639
cpu8_L1D LOAD      ACCESS:    7748367  HIT:    7729835  MISS:      18532
cpu8_L1D RFO       ACCESS:   13997089  HIT:   13996066  MISS:       1023
cpu8_L1D PREFETCH  ACCESS:          0  HIT:          0  MISS:          0
cpu8_L1D WRITEBACK ACCESS:          0  HIT:          0  MISS:          0
cpu8_L2C TOTAL     ACCESS:      49140  HIT:      33672  MISS:      15468
cpu8_L2C LOAD      ACCESS:      44449  HIT:      29609  MISS:      14840
cpu8_L2C RFO       ACCESS:       1023  HIT:        441  MISS:        582
cpu8_L2C PREFETCH  ACCESS:          0  HIT:          0  MISS:          0
cpu8_L2C WRITEBACK ACCESS:       3584  HIT:       3547  MISS:         37
cpu15_LLC TOTAL     ACCESS:        997  HIT:          2  MISS:        995
cpu15_LLC LOAD      ACCESS:        913  HIT:          2  MISS:        911
cpu15_LLC RFO       ACCESS:         31  HIT:          0  MISS:         31
cpu15_LLC PREFETCH  ACCESS:          0  HIT:          0  MISS:          0
cpu15_LLC WRITEBACK ACCESS:         53  HIT:          0  MISS:         53
cpu14_LLC TOTAL     ACCESS:       1053  HIT:          2  MISS:       1051
cpu14_LLC LOAD      ACCESS:        943  HIT:          2  MISS:        941
cpu14_LLC RFO       ACCESS:         43  HIT:          0  MISS:         43
cpu14_LLC PREFETCH  ACCESS:          0  HIT:          0  MISS:          0
cpu14_LLC WRITEBACK ACCESS:         67  HIT:          0  MISS:         67
cpu13_LLC TOTAL     ACCESS:       1007  HIT:          3  MISS:       1004
cpu13_LLC LOAD      ACCESS:        934  HIT:          3  MISS:        931
cpu13_LLC RFO       ACCESS:         27  HIT:          0  MISS:         27
cpu13_LLC PREFETCH  ACCESS:          0  HIT:          0  MISS:          0
cpu13_LLC WRITEBACK ACCESS:         45  HIT:          0  MISS:         45
cpu12_LLC TOTAL     ACCESS:        968  HIT:          2  MISS:        966
cpu12_LLC LOAD      ACCESS:        877  HIT:          2  MISS:        875
cpu12_LLC RFO       ACCESS:         37  HIT:          0  MISS:         37
[...]
cpu9_LLC RFO       ACCESS:          0  HIT:          0  MISS:          0
cpu9_LLC PREFETCH  ACCESS:          0  HIT:          0  MISS:          0
cpu9_LLC WRITEBACK ACCESS:        857  HIT:          1  MISS:        856
cpu9_LLC TRANSLATION ACCESS:          0  HIT:          0  MISS:          0
cpu9_LLC PREFETCH  REQUESTED:          0  ISSUED:          0  USEFUL:          0  USELESS:          0
cpu9_LLC AVERAGE MISS LATENCY: 189206 cycles
cpu8_LLC TOTAL     ACCESS:       2555  HIT:          0  MISS:       2555
cpu8_LLC LOAD      ACCESS:       1696  HIT:          0  MISS:       1696
cpu8_LLC RFO       ACCESS:          0  HIT:          0  MISS:          0
cpu8_LLC PREFETCH  ACCESS:          0  HIT:          0  MISS:          0
cpu8_LLC WRITEBACK ACCESS:        859  HIT:          0  MISS:        859
cpu8_LLC TRANSLATION ACCESS:          0  HIT:          0  MISS:          0
cpu8_LLC PREFETCH  REQUESTED:          0  ISSUED:          0  USEFUL:          0  USELESS:          0
cpu8_LLC AVERAGE MISS LATENCY: 189051 cycles
cpu7_LLC TOTAL     ACCESS:       2554  HIT:          0  MISS:       2554
cpu7_LLC LOAD      ACCESS:       1696  HIT:          0  MISS:       1696
cpu7_LLC RFO       ACCESS:          0  HIT:          0  MISS:          0
cpu7_LLC PREFETCH  ACCESS:          0  HIT:          0  MISS:          0
cpu7_LLC WRITEBACK ACCESS:        858  HIT:          0  MISS:        858
cpu7_LLC TRANSLATION ACCESS:          0  HIT:          0  MISS:          0
cpu7_LLC PREFETCH  REQUESTED:          0  ISSUED:          0  USEFUL:          0  USELESS:          0
cpu7_LLC AVERAGE MISS LATENCY: 189405 cycles
cpu6_LLC TOTAL     ACCESS:       2554  HIT:          0  MISS:       2554
cpu6_LLC LOAD      ACCESS:       1696  HIT:          0  MISS:       1696
cpu6_LLC RFO       ACCESS:          0  HIT:          0  MISS:          0
cpu6_LLC PREFETCH  ACCESS:          0  HIT:          0  MISS:          0
cpu6_LLC WRITEBACK ACCESS:        858  HIT:          0  MISS:        858
cpu6_LLC TRANSLATION ACCESS:          0  HIT:          0  MISS:          0
cpu6_LLC PREFETCH  REQUESTED:          0  ISSUED:          0  USEFUL:          0  USELESS:          0
cpu6_LLC AVERAGE MISS LATENCY: 189384 cycles
cpu5_LLC TOTAL     ACCESS:       2555  HIT:          0  MISS:       2555
cpu5_LLC LOAD      ACCESS:       1696  HIT:          0  MISS:       1696
cpu5_LLC RFO       ACCESS:          0  HIT:          0  MISS:          0
cpu5_LLC PREFETCH  ACCESS:          0  HIT:          0  MISS:          0
cpu5_LLC WRITEBACK ACCESS:        859  HIT:          0  MISS:        859
cpu5_LLC TRANSLATION ACCESS:          0  HIT:          0  MISS:          0
cpu5_LLC PREFETCH  REQUESTED:          0  ISSUED:          0  USEFUL:          0  USELESS:          0
cpu5_LLC AVERAGE MISS LATENCY: 189719 cycles
cpu4_LLC TOTAL     ACCESS:       2553  HIT:          1  MISS:       2552
cpu4_LLC LOAD      ACCESS:       1696  HIT:          0  MISS:       1696
cpu4_LLC RFO       ACCESS:          0  HIT:          0  MISS:          0
cpu4_LLC PREFETCH  ACCESS:          0  HIT:          0  MISS:          0
cpu4_LLC WRITEBACK ACCESS:        857  HIT:          1  MISS:        856
cpu4_LLC TRANSLATION ACCESS:          0  HIT:          0  MISS:          0
cpu4_LLC PREFETCH  REQUESTED:          0  ISSUED:          0  USEFUL:          0  USELESS:          0
cpu4_LLC AVERAGE MISS LATENCY: 188873 cycles
cpu3_LLC TOTAL     ACCESS:       2554  HIT:          2  MISS:       2552
cpu3_LLC LOAD      ACCESS:       1696  HIT:          0  MISS:       1696
cpu3_LLC RFO       ACCESS:          0  HIT:          0  MISS:          0
cpu3_LLC PREFETCH  ACCESS:          0  HIT:          0  MISS:          0
cpu3_LLC WRITEBACK ACCESS:        858  HIT:          2  MISS:        856
cpu3_LLC TRANSLATION ACCESS:          0  HIT:          0  MISS:          0
cpu3_LLC PREFETCH  REQUESTED:          0  ISSUED:          0  USEFUL:          0  USELESS:          0
cpu3_LLC AVERAGE MISS LATENCY: 188655 cycles
cpu2_LLC TOTAL     ACCESS:       2554  HIT:          0  MISS:       2554
cpu2_LLC LOAD      ACCESS:       1696  HIT:          0  MISS:       1696
cpu2_LLC RFO       ACCESS:          0  HIT:          0  MISS:          0
cpu2_LLC PREFETCH  ACCESS:          0  HIT:          0  MISS:          0
cpu2_LLC WRITEBACK ACCESS:        858  HIT:          0  MISS:        858
cpu2_LLC TRANSLATION ACCESS:          0  HIT:          0  MISS:          0
cpu2_LLC PREFETCH  REQUESTED:          0  ISSUED:          0  USEFUL:          0  USELESS:          0
cpu2_LLC AVERAGE MISS LATENCY: 188034 cycles
cpu1_LLC TOTAL     ACCESS:       2554  HIT:          0  MISS:       2554
cpu1_LLC LOAD      ACCESS:       1696  HIT:          0  MISS:       1696
cpu1_LLC RFO       ACCESS:          0  HIT:          0  MISS:          0
cpu1_LLC PREFETCH  ACCESS:          0  HIT:          0  MISS:          0
cpu1_LLC WRITEBACK ACCESS:        858  HIT:          0  MISS:        858
cpu1_LLC TRANSLATION ACCESS:          0  HIT:          0  MISS:          0
cpu1_LLC PREFETCH  REQUESTED:          0  ISSUED:          0  USEFUL:          0  USELESS:          0
cpu1_LLC AVERAGE MISS LATENCY: 188112 cycles
cpu0_LLC TOTAL     ACCESS:       2555  HIT:          0  MISS:       2555
cpu0_LLC LOAD      ACCESS:       1696  HIT:          0  MISS:       1696
cpu0_LLC RFO       ACCESS:          0  HIT:          0  MISS:          0
cpu0_LLC PREFETCH  ACCESS:          0  HIT:          0  MISS:          0
cpu0_LLC WRITEBACK ACCESS:        859  HIT:          0  MISS:        859
cpu0_LLC TRANSLATION ACCESS:          0  HIT:          0  MISS:          0
cpu0_LLC PREFETCH  REQUESTED:          0  ISSUED:          0  USEFUL:          0  USELESS:          0
cpu0_LLC AVERAGE MISS LATENCY: 188600 cycles

CPU 15 cumulative IPC: 0.98949 instructions: 1000002 cycles: 1010624
cpu15_DTLB TOTAL     ACCESS:     149934  HIT:     149933  MISS:          1
cpu15_DTLB LOAD      ACCESS:     132061  HIT:     132061  MISS:          0
cpu15_DTLB RFO       ACCESS:      17873  HIT:      17872  MISS:          1
cpu15_DTLB PREFETCH  ACCESS:          0  HIT:          0  MISS:          0
cpu15_DTLB WRITEBACK ACCESS:          0  HIT:          0  MISS:          0
cpu15_DTLB TRANSLATION ACCESS:          0  HIT:          0  MISS:          0
cpu15_DTLB PREFETCH  REQUESTED:          0  ISSUED:          0  USEFUL:          0  USELESS:          0
cpu15_DTLB AVERAGE MISS LATENCY: 136665 cycles
cpu15_ITLB TOTAL     ACCESS:      79797  HIT:      79797  MISS:          0
cpu15_ITLB LOAD      ACCESS:      79797  HIT:      79797  MISS:          0
cpu15_ITLB RFO       ACCESS:          0  HIT:          0  MISS:          0
cpu15_ITLB PREFETCH  ACCESS:          0  HIT:          0  MISS:          0
cpu15_ITLB WRITEBACK ACCESS:          0  HIT:          0  MISS:          0
cpu15_ITLB TRANSLATION ACCESS:          0  HIT:          0  MISS:          0
cpu15_ITLB PREFETCH  REQUESTED:          0  ISSUED:          0  USEFUL:          0  USELESS:          0
cpu15_ITLB AVERAGE MISS LATENCY: inf cycles
cpu15_L1I TOTAL     ACCESS:      40828  HIT:      40828  MISS:          0
cpu15_L1I LOAD      ACCESS:      40828  HIT:      40828  MISS:          0
cpu15_L1I RFO       ACCESS:          0  HIT:          0  MISS:          0
cpu15_L1I PREFETCH  ACCESS:          0  HIT:          0  MISS:          0
cpu15_L1I WRITEBACK ACCESS:          0  HIT:          0  MISS:          0
cpu15_L1I TRANSLATION ACCESS:          0  HIT:          0  MISS:          0
cpu15_L1I PREFETCH  REQUESTED:          0  ISSUED:          0  USEFUL:          0  USELESS:          0
cpu15_L1I AVERAGE MISS LATENCY: inf cycles
cpu15_STLB TOTAL     ACCESS:          1  HIT:          0  MISS:          1
cpu15_STLB LOAD      ACCESS:          0  HIT:          0  MISS:          0
cpu15_STLB RFO       ACCESS:          1  HIT:          0  MISS:          1
cpu15_STLB PREFETCH  ACCESS:          0  HIT:          0  MISS:          0
cpu15_STLB WRITEBACK ACCESS:          0  HIT:          0  MISS:          0
cpu15_STLB TRANSLATION ACCESS:          0  HIT:          0  MISS:          0
cpu15_STLB PREFETCH  REQUESTED:          0  ISSUED:          0  USEFUL:          0  USELESS:          0
cpu15_STLB AVERAGE MISS LATENCY: 91665 cycles
cpu15_L1D TOTAL     ACCESS:     164649  HIT:     164636  MISS:         13
cpu15_L1D LOAD      ACCESS:     124909  HIT:     124906  MISS:          3
cpu15_L1D RFO       ACCESS:      39739  HIT:      39729  MISS:         10
cpu15_L1D PREFETCH  ACCESS:          0  HIT:          0  MISS:          0
cpu15_L1D WRITEBACK ACCESS:          0  HIT:          0  MISS:          0
cpu15_L1D TRANSLATION ACCESS:          1  HIT:          1  MISS:          0
cpu15_L1D PREFETCH  REQUESTED:          0  ISSUED:          0  USEFUL:          0  USELESS:          0
cpu15_L1D AVERAGE MISS LATENCY: 1.95888e+06 cycles
cpu15_L2C TOTAL     ACCESS:         13  HIT:          0  MISS:         13
cpu15_L2C LOAD      ACCESS:          3  HIT:          0  MISS:          3
cpu15_L2C RFO       ACCESS:         10  HIT:          0  MISS:         10
cpu15_L2C PREFETCH  ACCESS:          0  HIT:          0  MISS:          0
cpu15_L2C WRITEBACK ACCESS:          0  HIT:          0  MISS:          0
cpu15_L2C TRANSLATION ACCESS:          0  HIT:          0  MISS:          0
cpu15_L2C PREFETCH  REQUESTED:          0  ISSUED:          0  USEFUL:          0  USELESS:          0
cpu15_L2C AVERAGE MISS LATENCY: 2.09395e+06 cycles
cpu14_LLC TOTAL     ACCESS:          1  HIT:          0  MISS:          1
cpu14_LLC LOAD      ACCESS:          0  HIT:          0  MISS:          0
cpu14_LLC RFO       ACCESS:          1  HIT:          0  MISS:          1
cpu14_LLC PREFETCH  ACCESS:          0  HIT:          0  MISS:          0
cpu14_LLC WRITEBACK ACCESS:          0  HIT:          0  MISS:          0
cpu14_LLC TRANSLATION ACCESS:          0  HIT:          0  MISS:          0
cpu14_LLC PREFETCH  REQUESTED:          0  ISSUED:          0  USEFUL:          0  USELESS:          0
cpu14_LLC AVERAGE MISS LATENCY: 4.84615e+08 cycles
cpu13_LLC TOTAL     ACCESS:          2  HIT:          0  MISS:          2
cpu13_LLC LOAD      ACCESS:          1  HIT:          0  MISS:          1
cpu13_LLC RFO       ACCESS:          1  HIT:          0  MISS:          1
cpu13_LLC PREFETCH  ACCESS:          0  HIT:          0  MISS:          0
cpu13_LLC WRITEBACK ACCESS:          0  HIT:          0  MISS:          0
cpu13_LLC TRANSLATION ACCESS:          0  HIT:          0  MISS:          0
cpu13_LLC PREFETCH  REQUESTED:          0  ISSUED:          0  USEFUL:          0  USELESS:          0
cpu13_LLC AVERAGE MISS LATENCY: 2.41318e+08 cycles
cpu11_LLC TOTAL     ACCESS:          1  HIT:          0  MISS:          1
cpu11_LLC LOAD      ACCESS:          0  HIT:          0  MISS:          0
cpu11_LLC RFO       ACCESS:          1  HIT:          0  MISS:          1
cpu11_LLC PREFETCH  ACCESS:          0  HIT:          0  MISS:          0
cpu11_LLC WRITEBACK ACCESS:          0  HIT:          0  MISS:          0
cpu11_LLC TRANSLATION ACCESS:          0  HIT:          0  MISS:          0
cpu11_LLC PREFETCH  REQUESTED:          0  ISSUED:          0  USEFUL:          0  USELESS:          0
cpu11_LLC AVERAGE MISS LATENCY: 4.82266e+08 cycles
cpu9_LLC TOTAL     ACCESS:          1  HIT:          0  MISS:          1
cpu9_LLC LOAD      ACCESS:          0  HIT:          0  MISS:          0
cpu9_LLC RFO       ACCESS:          1  HIT:          0  MISS:          1
cpu9_LLC PREFETCH  ACCESS:          0  HIT:          0  MISS:          0
cpu9_LLC WRITEBACK ACCESS:          0  HIT:          0  MISS:          0
cpu9_LLC TRANSLATION ACCESS:          0  HIT:          0  MISS:          0
cpu9_LLC PREFETCH  REQUESTED:          0  ISSUED:          0  USEFUL:          0  USELESS:          0
cpu9_LLC AVERAGE MISS LATENCY: 4.82853e+08 cycles
cpu8_LLC TOTAL     ACCESS:          1  HIT:          0  MISS:          1
cpu8_LLC LOAD      ACCESS:          0  HIT:          0  MISS:          0
cpu8_LLC RFO       ACCESS:          1  HIT:          0  MISS:          1
cpu8_LLC PREFETCH  ACCESS:          0  HIT:          0  MISS:          0
cpu8_LLC WRITEBACK ACCESS:          0  HIT:          0  MISS:          0
cpu8_LLC TRANSLATION ACCESS:          0  HIT:          0  MISS:          0
cpu8_LLC PREFETCH  REQUESTED:          0  ISSUED:          0  USEFUL:          0  USELESS:          0
cpu8_LLC AVERAGE MISS LATENCY: 4.83025e+08 cycles
cpu6_LLC TOTAL     ACCESS:          1  HIT:          0  MISS:          1
cpu6_LLC LOAD      ACCESS:          0  HIT:          0  MISS:          0
cpu6_LLC RFO       ACCESS:          1  HIT:          0  MISS:          1
cpu6_LLC PREFETCH  ACCESS:          0  HIT:          0  MISS:          0
cpu6_LLC WRITEBACK ACCESS:          0  HIT:          0  MISS:          0
cpu6_LLC TRANSLATION ACCESS:          0  HIT:          0  MISS:          0
cpu6_LLC PREFETCH  REQUESTED:          0  ISSUED:          0  USEFUL:          0  USELESS:          0
cpu6_LLC AVERAGE MISS LATENCY: 4.83687e+08 cycles
cpu3_LLC TOTAL     ACCESS:          1  HIT:          0  MISS:          1
cpu3_LLC LOAD      ACCESS:          0  HIT:          0  MISS:          0
cpu3_LLC RFO       ACCESS:          1  HIT:          0  MISS:          1
cpu3_LLC PREFETCH  ACCESS:          0  HIT:          0  MISS:          0
cpu3_LLC WRITEBACK ACCESS:          0  HIT:          0  MISS:          0
cpu3_LLC TRANSLATION ACCESS:          0  HIT:          0  MISS:          0
cpu3_LLC PREFETCH  REQUESTED:          0  ISSUED:          0  USEFUL:          0  USELESS:          0
cpu3_LLC AVERAGE MISS LATENCY: 4.81448e+08 cycles
cpu2_LLC TOTAL     ACCESS:          1  HIT:          0  MISS:          1
cpu2_LLC LOAD      ACCESS:          1  HIT:          0  MISS:          1
cpu2_LLC RFO       ACCESS:          0  HIT:          0  MISS:          0
cpu2_LLC PREFETCH  ACCESS:          0  HIT:          0  MISS:          0
cpu2_LLC WRITEBACK ACCESS:          0  HIT:          0  MISS:          0
cpu2_LLC TRANSLATION ACCESS:          0  HIT:          0  MISS:          0
cpu2_LLC PREFETCH  REQUESTED:          0  ISSUED:          0  USEFUL:          0  USELESS:          0
cpu2_LLC AVERAGE MISS LATENCY: 4.8024e+08 cycles
cpu1_LLC TOTAL     ACCESS:          2  HIT:          0  MISS:          2
cpu1_LLC LOAD      ACCESS:          1  HIT:          0  MISS:          1
cpu1_LLC RFO       ACCESS:          1  HIT:          0  MISS:          1
cpu1_LLC PREFETCH  ACCESS:          0  HIT:          0  MISS:          0
cpu1_LLC WRITEBACK ACCESS:          0  HIT:          0  MISS:          0
cpu1_LLC TRANSLATION ACCESS:          0  HIT:          0  MISS:          0
cpu1_LLC PREFETCH  REQUESTED:          0  ISSUED:          0  USEFUL:          0  USELESS:          0
cpu1_LLC AVERAGE MISS LATENCY: 2.40219e+08 cycles
cpu0_LLC TOTAL     ACCESS:          2  HIT:          0  MISS:          2
cpu0_LLC LOAD      ACCESS:          0  HIT:          0  MISS:          0
cpu0_LLC RFO       ACCESS:          2  HIT:          0  MISS:          2
cpu0_LLC PREFETCH  ACCESS:          0  HIT:          0  MISS:          0
cpu0_LLC WRITEBACK ACCESS:          0  HIT:          0  MISS:          0
cpu0_LLC TRANSLATION ACCESS:          0  HIT:          0  MISS:          0
cpu0_LLC PREFETCH  REQUESTED:          0  ISSUED:          0  USEFUL:          0  USELESS:          0
cpu0_LLC AVERAGE MISS LATENCY: 2.40937e+08 cycles

DRAM Statistics
 CHANNEL 0
 RQ ROW_BUFFER_HIT:       4266  ROW_BUFFER_MISS:    1244337
 DBUS AVG_CONGESTED_CYCLE:     4.0024
 WQ ROW_BUFFER_HIT:       1342  ROW_BUFFER_MISS:     549547  FULL:          0


CPU 0 Branch Prediction Accuracy: 97.4278% MPKI: 3.74687 Average ROB Occupancy at Mispredict: 148.548
Branch type MPKI
BRANCH_DIRECT_JUMP: 0.00634392
BRANCH_INDIRECT: 0.0937325
BRANCH_CONDITIONAL: 3.59017
BRANCH_DIRECT_CALL: 0.00472451
BRANCH_INDIRECT_CALL: 0.0602004
BRANCH_RETURN: 0.0042788


CPU 1 Branch Prediction Accuracy: 98.191% MPKI: 2.00819 Average ROB Occupancy at Mispredict: 182.36
Branch type MPKI
BRANCH_DIRECT_JUMP: 0.00301966
BRANCH_INDIRECT: 0
BRANCH_CONDITIONAL: 2.07601
BRANCH_DIRECT_CALL: 0.00150983
BRANCH_INDIRECT_CALL: 0
BRANCH_RETURN: 0.00150983


CPU 2 Branch Prediction Accuracy: 94.2995% MPKI: 11.6366 Average ROB Occupancy at Mispredict: 62.204
Branch type MPKI
BRANCH_DIRECT_JUMP: 0.0020486
BRANCH_INDIRECT: 0.388006
BRANCH_CONDITIONAL: 10.8371
BRANCH_DIRECT_CALL: 0.00122916
BRANCH_INDIRECT_CALL: 0.311797
BRANCH_RETURN: 0.432665


CPU 3 Branch Prediction Accuracy: 96.1727% MPKI: 0.638511 Average ROB Occupancy at Mispredict: 266.557
Branch type MPKI
BRANCH_DIRECT_JUMP: 0
BRANCH_INDIRECT: 0
BRANCH_CONDITIONAL: 0.681385
BRANCH_DIRECT_CALL: 0
BRANCH_INDIRECT_CALL: 0
BRANCH_RETURN: 0


CPU 4 Branch Prediction Accuracy: 99.6675% MPKI: 0.0298872 Average ROB Occupancy at Mispredict: 30.2042
Branch type MPKI
BRANCH_DIRECT_JUMP: 0.00107926
BRANCH_INDIRECT: 8.30201e-05
BRANCH_CONDITIONAL: 0.0255702
BRANCH_DIRECT_CALL: 0.00161889
BRANCH_INDIRECT_CALL: 0
BRANCH_RETURN: 0.00153587


CPU 5 Branch Prediction Accuracy: 92.3532% MPKI: 18.2519 Average ROB Occupancy at Mispredict: 33.479
Branch type MPKI
BRANCH_DIRECT_JUMP: 0
BRANCH_INDIRECT: 0
BRANCH_CONDITIONAL: 19.607
BRANCH_DIRECT_CALL: 0
BRANCH_INDIRECT_CALL: 0
BRANCH_RETURN: 0


CPU 6 Branch Prediction Accuracy: 85.4865% MPKI: 10.448 Average ROB Occupancy at Mispredict: 309.529
Branch type MPKI
BRANCH_DIRECT_JUMP: 0
BRANCH_INDIRECT: 0
BRANCH_CONDITIONAL: 11.0476
BRANCH_DIRECT_CALL: 0
BRANCH_INDIRECT_CALL: 0
BRANCH_RETURN: 0


CPU 7 Branch Prediction Accuracy: 95.6676% MPKI: 5.77684 Average ROB Occupancy at Mispredict: 108.762
Branch type MPKI
BRANCH_DIRECT_JUMP: 0.000136103
BRANCH_INDIRECT: 0
BRANCH_CONDITIONAL: 5.78133
BRANCH_DIRECT_CALL: 0.000663504
BRANCH_INDIRECT_CALL: 0
BRANCH_RETURN: 0.000544413


CPU 8 Branch Prediction Accuracy: 97.427% MPKI: 3.74805 Average ROB Occupancy at Mispredict: 148.432
Branch type MPKI
BRANCH_DIRECT_JUMP: 0.00640286
BRANCH_INDIRECT: 0.0938146
BRANCH_CONDITIONAL: 3.59092
BRANCH_DIRECT_CALL: 0.00475386
BRANCH_INDIRECT_CALL: 0.0604632
BRANCH_RETURN: 0.00432305


CPU 9 Branch Prediction Accuracy: 98.191% MPKI: 2.01132 Average ROB Occupancy at Mispredict: 181.812
Branch type MPKI
BRANCH_DIRECT_JUMP: 0.0030454
BRANCH_INDIRECT: 0
BRANCH_CONDITIONAL: 2.08001
BRANCH_DIRECT_CALL: 0.0015227
BRANCH_INDIRECT_CALL: 0
BRANCH_RETURN: 0.0015227


CPU 10 Branch Prediction Accuracy: 94.2993% MPKI: 11.6382 Average ROB Occupancy at Mispredict: 62.1791
Branch type MPKI
BRANCH_DIRECT_JUMP: 0.00204823
BRANCH_INDIRECT: 0.387934
BRANCH_CONDITIONAL: 10.8351
BRANCH_DIRECT_CALL: 0.00122894
BRANCH_INDIRECT_CALL: 0.31174
BRANCH_RETURN: 0.432586


CPU 11 Branch Prediction Accuracy: 96.1746% MPKI: 0.638599 Average ROB Occupancy at Mispredict: 262.393
Branch type MPKI
BRANCH_DIRECT_JUMP: 0
BRANCH_INDIRECT: 0
BRANCH_CONDITIONAL: 0.680927
BRANCH_DIRECT_CALL: 0
BRANCH_INDIRECT_CALL: 0
BRANCH_RETURN: 0


CPU 12 Branch Prediction Accuracy: 99.6625% MPKI: 0.0303462 Average ROB Occupancy at Mispredict: 32.7417
Branch type MPKI
BRANCH_DIRECT_JUMP: 0.00109595
BRANCH_INDIRECT: 8.43036e-05
BRANCH_CONDITIONAL: 0.0259655
BRANCH_DIRECT_CALL: 0.00164392
BRANCH_INDIRECT_CALL: 0
BRANCH_RETURN: 0.00155962


CPU 13 Branch Prediction Accuracy: 92.3531% MPKI: 18.2564 Average ROB Occupancy at Mispredict: 33.5163
Branch type MPKI
BRANCH_DIRECT_JUMP: 0
BRANCH_INDIRECT: 0
BRANCH_CONDITIONAL: 19.6092
BRANCH_DIRECT_CALL: 0
BRANCH_INDIRECT_CALL: 0
BRANCH_RETURN: 0


CPU 14 Branch Prediction Accuracy: 85.4864% MPKI: 10.4488 Average ROB Occupancy at Mispredict: 309.273
Branch type MPKI
BRANCH_DIRECT_JUMP: 0
BRANCH_INDIRECT: 0
BRANCH_CONDITIONAL: 11.0479
BRANCH_DIRECT_CALL: 0
BRANCH_INDIRECT_CALL: 0
BRANCH_RETURN: 0


CPU 15 Branch Prediction Accuracy: 95.6663% MPKI: 5.77998 Average ROB Occupancy at Mispredict: 108.659
Branch type MPKI
BRANCH_DIRECT_JUMP: 0.000135686
BRANCH_INDIRECT: 0
BRANCH_CONDITIONAL: 5.78449
BRANCH_DIRECT_CALL: 0.000661467
BRANCH_INDIRECT_CALL: 0
BRANCH_RETURN: 0.000542742

